MODEL 1
REMARK VINA RESULT:    -6.416      0.000      0.000
REMARK INTER + INTRA:         -13.481
REMARK INTER:                 -10.952
REMARK INTRA:                  -2.529
REMARK UNBOUND:                -2.564
REMARK  14 active torsions:
REMARK  status: ('A' for Active; 'I' for Inactive)
REMARK    1  A    between atoms: C1_3  and  O1_2 
REMARK    2  A    between atoms: C2_4  and  N2_5 
REMARK    3  A    between atoms: S1_7  and  N2_5 
REMARK    4  A    between atoms: O3_12  and  C3_11 
REMARK    5  A    between atoms: C4_14  and  O4_19 
REMARK    6  A    between atoms: C6_16  and  C5_15 
REMARK    7  A    between atoms: C6_16  and  O6_17 
REMARK    8  A    between atoms: S1_38  and  O6_17 
REMARK    9  A    between atoms: C1_20  and  O4_19 
REMARK   10  A    between atoms: C6_23  and  C5_22 
REMARK   11  A    between atoms: O4_27  and  C4_26 
REMARK   12  A    between atoms: O3_30  and  C3_29 
REMARK   13  A    between atoms: O2_33  and  C2_32 
REMARK   14  A    between atoms: O2_33  and  S1_34 
ROOT
ATOM      1  C1  UYS d   2     -26.525  37.406  29.332  0.00  0.00     0.283 C 
ATOM      2  C2  UYS d   2     -25.028  37.216  29.771  0.00  0.00     0.181 C 
ATOM      3  C3  UYS d   2     -24.869  35.714  30.040  0.00  0.00     0.178 C 
ATOM      4  C4  UYS d   2     -25.800  35.393  31.296  0.00  0.00     0.186 C 
ATOM      5  C5  UYS d   2     -27.241  35.610  30.975  0.00  0.00     0.181 C 
ATOM      6  O5  UYS d   2     -27.415  37.049  30.444  0.00  0.00    -0.349 OA
ENDROOT
BRANCH   4   7
ATOM      7  O4  UYS d   2     -25.718  33.956  31.718  0.00  0.00    -0.348 OA
BRANCH   7   8
ATOM      8  C1  2UA d   3     -25.220  33.706  33.195  0.00  0.00     0.294 C 
ATOM      9  C2  2UA d   3     -24.235  32.556  33.095  0.00  0.00     0.231 C 
ATOM     10  C3  2UA d   3     -23.485  32.377  34.456  0.00  0.00     0.185 C 
ATOM     11  C4  2UA d   3     -22.838  33.688  34.970  0.00  0.00     0.189 C 
ATOM     12  C5  2UA d   3     -23.877  34.855  35.049  0.00  0.00     0.256 C 
ATOM     13  O5  2UA d   3     -24.690  34.976  33.755  0.00  0.00    -0.340 OA
BRANCH   9  14
ATOM     14  O2  2UA d   3     -24.942  31.324  32.719  0.00  0.00    -0.244 OA
BRANCH  14  15
ATOM     15  S1  SO3 d   4     -24.379  30.455  31.534  0.00  0.00     0.252 S 
ATOM     16  O3  SO3 d   4     -25.340  30.630  30.469  0.00  0.00    -0.572 OA
ATOM     17  O1  SO3 d   4     -24.295  29.083  32.021  0.00  0.00    -0.572 OA
ATOM     18  O2  SO3 d   4     -23.126  31.039  31.230  0.00  0.00    -0.572 OA
ENDBRANCH  14  15
ENDBRANCH   9  14
BRANCH  10  19
ATOM     19  O3  2UA d   3     -22.421  31.367  34.373  0.00  0.00    -0.390 OA
ATOM     20  H3O 2UA d   3     -22.230  31.207  33.448  0.00  0.00     0.210 HD
ENDBRANCH  10  19
BRANCH  11  21
ATOM     21  O4  2UA d   3     -22.150  33.638  36.231  0.00  0.00    -0.390 OA
ATOM     22  H4O 2UA d   3     -22.408  34.474  36.622  0.00  0.00     0.210 HD
ENDBRANCH  11  21
BRANCH  12  23
ATOM     23  C6  2UA d   3     -24.728  34.689  36.351  0.00  0.00     0.206 C 
ATOM     24  O6A 2UA d   3     -24.192  35.063  37.418  0.00  0.00    -0.646 OA
ATOM     25  O6B 2UA d   3     -25.835  34.098  36.392  0.00  0.00    -0.646 OA
ENDBRANCH  12  23
ENDBRANCH   7   8
ENDBRANCH   4   7
BRANCH   5  26
ATOM     26  C6  UYS d   2     -28.192  35.471  32.169  0.00  0.00     0.227 C 
BRANCH  26  27
ATOM     27  O6  UYS d   2     -29.364  34.861  31.727  0.00  0.00    -0.254 OA
BRANCH  27  28
ATOM     28  S1  SO3 d   5     -29.749  33.442  32.071  0.00  0.00     0.251 S 
ATOM     29  O1  SO3 d   5     -29.741  32.651  30.852  0.00  0.00    -0.572 OA
ATOM     30  O3  SO3 d   5     -28.770  32.930  32.998  0.00  0.00    -0.572 OA
ATOM     31  O2  SO3 d   5     -31.037  33.617  32.626  0.00  0.00    -0.572 OA
ENDBRANCH  27  28
ENDBRANCH  26  27
ENDBRANCH   5  26
BRANCH   3  32
ATOM     32  O3  UYS d   2     -23.457  35.326  30.288  0.00  0.00    -0.391 OA
ATOM     33  H3O UYS d   2     -23.323  34.823  31.092  0.00  0.00     0.210 HD
ENDBRANCH   3  32
BRANCH   2  34
ATOM     34  N2  UYS d   2     -24.109  37.747  28.704  0.00  0.00    -0.289 N 
ATOM     35  H2N UYS d   2     -24.345  37.634  27.728  0.00  0.00     0.175 HD
BRANCH  34  36
ATOM     36  S1  UYS d   2     -22.766  38.509  29.105  0.00  0.00     0.205 S 
ATOM     37  O1S UYS d   2     -22.284  38.102  30.389  0.00  0.00    -0.578 OA
ATOM     38  O3S UYS d   2     -21.812  38.088  28.067  0.00  0.00    -0.578 OA
ATOM     39  O2S UYS d   2     -22.940  39.946  29.091  0.00  0.00    -0.578 OA
ENDBRANCH  34  36
ENDBRANCH   2  34
BRANCH   1  40
ATOM     40  O1  ROH d   1     -27.001  36.615  28.198  0.00  0.00    -0.369 OA
ATOM     41  HO1 ROH d   1     -27.169  37.258  27.504  0.00  0.00     0.212 HD
ENDBRANCH   1  40
TORSDOF 14
ENDMDL
MODEL 2
REMARK VINA RESULT:    -6.411     19.196     23.278
REMARK INTER + INTRA:         -13.472
REMARK INTER:                 -10.893
REMARK INTRA:                  -2.579
REMARK UNBOUND:                -2.564
REMARK  14 active torsions:
REMARK  status: ('A' for Active; 'I' for Inactive)
REMARK    1  A    between atoms: C1_3  and  O1_2 
REMARK    2  A    between atoms: C2_4  and  N2_5 
REMARK    3  A    between atoms: S1_7  and  N2_5 
REMARK    4  A    between atoms: O3_12  and  C3_11 
REMARK    5  A    between atoms: C4_14  and  O4_19 
REMARK    6  A    between atoms: C6_16  and  C5_15 
REMARK    7  A    between atoms: C6_16  and  O6_17 
REMARK    8  A    between atoms: S1_38  and  O6_17 
REMARK    9  A    between atoms: C1_20  and  O4_19 
REMARK   10  A    between atoms: C6_23  and  C5_22 
REMARK   11  A    between atoms: O4_27  and  C4_26 
REMARK   12  A    between atoms: O3_30  and  C3_29 
REMARK   13  A    between atoms: O2_33  and  C2_32 
REMARK   14  A    between atoms: O2_33  and  S1_34 
ROOT
ATOM      1  C1  UYS d   2     -44.122  22.956  22.171  0.00  0.00     0.283 C 
ATOM      2  C2  UYS d   2     -43.635  23.600  23.519  0.00  0.00     0.181 C 
ATOM      3  C3  UYS d   2     -44.463  24.882  23.681  0.00  0.00     0.178 C 
ATOM      4  C4  UYS d   2     -44.022  25.842  22.484  0.00  0.00     0.186 C 
ATOM      5  C5  UYS d   2     -44.397  25.267  21.159  0.00  0.00     0.181 C 
ATOM      6  O5  UYS d   2     -43.796  23.849  21.051  0.00  0.00    -0.349 OA
ENDROOT
BRANCH   4   7
ATOM      7  O4  UYS d   2     -44.716  27.171  22.530  0.00  0.00    -0.348 OA
BRANCH   7   8
ATOM      8  C1  2UA d   3     -43.808  28.401  22.923  0.00  0.00     0.294 C 
ATOM      9  C2  2UA d   3     -44.389  29.583  22.170  0.00  0.00     0.231 C 
ATOM     10  C3  2UA d   3     -43.727  30.910  22.670  0.00  0.00     0.185 C 
ATOM     11  C4  2UA d   3     -43.792  31.079  24.209  0.00  0.00     0.189 C 
ATOM     12  C5  2UA d   3     -43.196  29.838  24.953  0.00  0.00     0.256 C 
ATOM     13  O5  2UA d   3     -43.763  28.524  24.403  0.00  0.00    -0.340 OA
BRANCH   9  14
ATOM     14  O2  2UA d   3     -44.184  29.405  20.726  0.00  0.00    -0.244 OA
BRANCH  14  15
ATOM     15  S1  SO3 d   4     -45.265  29.967  19.729  0.00  0.00     0.252 S 
ATOM     16  O3  SO3 d   4     -46.398  30.286  20.567  0.00  0.00    -0.572 OA
ATOM     17  O1  SO3 d   4     -45.534  28.910  18.762  0.00  0.00    -0.572 OA
ATOM     18  O2  SO3 d   4     -44.666  31.122  19.172  0.00  0.00    -0.572 OA
ENDBRANCH  14  15
ENDBRANCH   9  14
BRANCH  10  19
ATOM     19  O3  2UA d   3     -44.352  32.098  22.073  0.00  0.00    -0.390 OA
ATOM     20  H3O 2UA d   3     -45.236  31.863  21.787  0.00  0.00     0.210 HD
ENDBRANCH  10  19
BRANCH  11  21
ATOM     21  O4  2UA d   3     -43.183  32.253  24.773  0.00  0.00    -0.390 OA
ATOM     22  H4O 2UA d   3     -42.424  31.876  25.221  0.00  0.00     0.210 HD
ENDBRANCH  11  21
BRANCH  12  23
ATOM     23  C6  2UA d   3     -41.635  29.941  24.942  0.00  0.00     0.206 C 
ATOM     24  O6A 2UA d   3     -41.032  29.355  25.869  0.00  0.00    -0.646 OA
ATOM     25  O6B 2UA d   3     -40.988  30.668  24.149  0.00  0.00    -0.646 OA
ENDBRANCH  12  23
ENDBRANCH   7   8
ENDBRANCH   4   7
BRANCH   5  26
ATOM     26  C6  UYS d   2     -43.876  26.051  19.950  0.00  0.00     0.227 C 
BRANCH  26  27
ATOM     27  O6  UYS d   2     -43.306  25.147  19.055  0.00  0.00    -0.254 OA
BRANCH  27  28
ATOM     28  S1  SO3 d   5     -43.770  24.978  17.628  0.00  0.00     0.251 S 
ATOM     29  O1  SO3 d   5     -44.162  26.278  17.110  0.00  0.00    -0.572 OA
ATOM     30  O3  SO3 d   5     -42.663  24.456  16.863  0.00  0.00    -0.572 OA
ATOM     31  O2  SO3 d   5     -44.847  24.076  17.777  0.00  0.00    -0.572 OA
ENDBRANCH  27  28
ENDBRANCH  26  27
ENDBRANCH   5  26
BRANCH   3  32
ATOM     32  O3  UYS d   2     -44.264  25.526  25.005  0.00  0.00    -0.391 OA
ATOM     33  H3O UYS d   2     -44.771  25.132  25.714  0.00  0.00     0.210 HD
ENDBRANCH   3  32
BRANCH   2  34
ATOM     34  N2  UYS d   2     -43.803  22.618  24.647  0.00  0.00    -0.289 N 
ATOM     35  H2N UYS d   2     -44.617  22.020  24.684  0.00  0.00     0.175 HD
BRANCH  34  36
ATOM     36  S1  UYS d   2     -42.690  22.500  25.784  0.00  0.00     0.205 S 
ATOM     37  O1S UYS d   2     -42.671  21.200  26.380  0.00  0.00    -0.578 OA
ATOM     38  O3S UYS d   2     -41.432  22.724  25.055  0.00  0.00    -0.578 OA
ATOM     39  O2S UYS d   2     -42.871  23.499  26.817  0.00  0.00    -0.578 OA
ENDBRANCH  34  36
ENDBRANCH   2  34
BRANCH   1  40
ATOM     40  O1  ROH d   1     -45.551  22.681  22.032  0.00  0.00    -0.369 OA
ATOM     41  HO1 ROH d   1     -45.735  22.806  21.097  0.00  0.00     0.212 HD
ENDBRANCH   1  40
TORSDOF 14
ENDMDL
MODEL 3
REMARK VINA RESULT:    -6.254     20.684     22.917
REMARK INTER + INTRA:         -13.205
REMARK INTER:                 -10.776
REMARK INTRA:                  -2.429
REMARK UNBOUND:                -2.564
REMARK  14 active torsions:
REMARK  status: ('A' for Active; 'I' for Inactive)
REMARK    1  A    between atoms: C1_3  and  O1_2 
REMARK    2  A    between atoms: C2_4  and  N2_5 
REMARK    3  A    between atoms: S1_7  and  N2_5 
REMARK    4  A    between atoms: O3_12  and  C3_11 
REMARK    5  A    between atoms: C4_14  and  O4_19 
REMARK    6  A    between atoms: C6_16  and  C5_15 
REMARK    7  A    between atoms: C6_16  and  O6_17 
REMARK    8  A    between atoms: S1_38  and  O6_17 
REMARK    9  A    between atoms: C1_20  and  O4_19 
REMARK   10  A    between atoms: C6_23  and  C5_22 
REMARK   11  A    between atoms: O4_27  and  C4_26 
REMARK   12  A    between atoms: O3_30  and  C3_29 
REMARK   13  A    between atoms: O2_33  and  C2_32 
REMARK   14  A    between atoms: O2_33  and  S1_34 
ROOT
ATOM      1  C1  UYS d   2     -45.367  25.760  20.645  0.00  0.00     0.283 C 
ATOM      2  C2  UYS d   2     -44.188  24.722  20.570  0.00  0.00     0.181 C 
ATOM      3  C3  UYS d   2     -44.443  23.733  21.715  0.00  0.00     0.178 C 
ATOM      4  C4  UYS d   2     -44.282  24.573  23.063  0.00  0.00     0.186 C 
ATOM      5  C5  UYS d   2     -45.333  25.625  23.178  0.00  0.00     0.181 C 
ATOM      6  O5  UYS d   2     -45.291  26.503  21.909  0.00  0.00    -0.349 OA
ENDROOT
BRANCH   4   7
ATOM      7  O4  UYS d   2     -44.456  23.727  24.289  0.00  0.00    -0.348 OA
BRANCH   7   8
ATOM      8  C1  2UA d   3     -43.122  23.238  24.977  0.00  0.00     0.294 C 
ATOM      9  C2  2UA d   3     -43.401  23.283  26.467  0.00  0.00     0.231 C 
ATOM     10  C3  2UA d   3     -42.238  22.586  27.248  0.00  0.00     0.185 C 
ATOM     11  C4  2UA d   3     -41.930  21.158  26.730  0.00  0.00     0.189 C 
ATOM     12  C5  2UA d   3     -41.659  21.146  25.189  0.00  0.00     0.256 C 
ATOM     13  O5  2UA d   3     -42.740  21.914  24.420  0.00  0.00    -0.340 OA
BRANCH   9  14
ATOM     14  O2  2UA d   3     -43.565  24.676  26.903  0.00  0.00    -0.244 OA
BRANCH  14  15
ATOM     15  S1  SO3 d   4     -44.805  25.054  27.796  0.00  0.00     0.252 S 
ATOM     16  O3  SO3 d   4     -44.501  24.496  29.093  0.00  0.00    -0.572 OA
ATOM     17  O1  SO3 d   4     -45.975  24.453  27.165  0.00  0.00    -0.572 OA
ATOM     18  O2  SO3 d   4     -44.817  26.469  27.806  0.00  0.00    -0.572 OA
ENDBRANCH  14  15
ENDBRANCH   9  14
BRANCH  10  19
ATOM     19  O3  2UA d   3     -42.524  22.478  28.685  0.00  0.00    -0.390 OA
ATOM     20  H3O 2UA d   3     -41.989  23.123  29.148  0.00  0.00     0.210 HD
ENDBRANCH  10  19
BRANCH  11  21
ATOM     21  O4  2UA d   3     -40.855  20.442  27.362  0.00  0.00    -0.390 OA
ATOM     22  H4O 2UA d   3     -41.118  19.533  27.211  0.00  0.00     0.210 HD
ENDBRANCH  11  21
BRANCH  12  23
ATOM     23  C6  2UA d   3     -40.193  21.628  24.928  0.00  0.00     0.206 C 
ATOM     24  O6A 2UA d   3     -39.281  20.842  25.265  0.00  0.00    -0.646 OA
ATOM     25  O6B 2UA d   3     -39.897  22.781  24.529  0.00  0.00    -0.646 OA
ENDBRANCH  12  23
ENDBRANCH   7   8
ENDBRANCH   4   7
BRANCH   5  26
ATOM     26  C6  UYS d   2     -45.161  26.575  24.368  0.00  0.00     0.227 C 
BRANCH  26  27
ATOM     27  O6  UYS d   2     -43.936  27.226  24.235  0.00  0.00    -0.254 OA
BRANCH  27  28
ATOM     28  S1  SO3 d   5     -43.779  28.727  24.262  0.00  0.00     0.251 S 
ATOM     29  O1  SO3 d   5     -45.050  29.320  24.641  0.00  0.00    -0.572 OA
ATOM     30  O3  SO3 d   5     -42.772  29.049  25.245  0.00  0.00    -0.572 OA
ATOM     31  O2  SO3 d   5     -43.396  29.004  22.930  0.00  0.00    -0.572 OA
ENDBRANCH  27  28
ENDBRANCH  26  27
ENDBRANCH   5  26
BRANCH   3  32
ATOM     32  O3  UYS d   2     -43.522  22.569  21.678  0.00  0.00    -0.391 OA
ATOM     33  H3O UYS d   2     -43.028  22.484  20.862  0.00  0.00     0.210 HD
ENDBRANCH   3  32
BRANCH   2  34
ATOM     34  N2  UYS d   2     -44.152  24.084  19.207  0.00  0.00    -0.289 N 
ATOM     35  H2N UYS d   2     -44.409  23.113  19.094  0.00  0.00     0.175 HD
BRANCH  34  36
ATOM     36  S1  UYS d   2     -43.724  24.938  17.930  0.00  0.00     0.205 S 
ATOM     37  O1S UYS d   2     -42.756  24.254  17.130  0.00  0.00    -0.578 OA
ATOM     38  O3S UYS d   2     -44.978  25.074  17.173  0.00  0.00    -0.578 OA
ATOM     39  O2S UYS d   2     -43.206  26.238  18.304  0.00  0.00    -0.578 OA
ENDBRANCH  34  36
ENDBRANCH   2  34
BRANCH   1  40
ATOM     40  O1  ROH d   1     -46.731  25.237  20.594  0.00  0.00    -0.369 OA
ATOM     41  HO1 ROH d   1     -46.844  24.766  21.423  0.00  0.00     0.212 HD
ENDBRANCH   1  40
TORSDOF 14
ENDMDL
MODEL 4
REMARK VINA RESULT:    -6.243      1.735      5.080
REMARK INTER + INTRA:         -13.186
REMARK INTER:                 -10.621
REMARK INTRA:                  -2.565
REMARK UNBOUND:                -2.564
REMARK  14 active torsions:
REMARK  status: ('A' for Active; 'I' for Inactive)
REMARK    1  A    between atoms: C1_3  and  O1_2 
REMARK    2  A    between atoms: C2_4  and  N2_5 
REMARK    3  A    between atoms: S1_7  and  N2_5 
REMARK    4  A    between atoms: O3_12  and  C3_11 
REMARK    5  A    between atoms: C4_14  and  O4_19 
REMARK    6  A    between atoms: C6_16  and  C5_15 
REMARK    7  A    between atoms: C6_16  and  O6_17 
REMARK    8  A    between atoms: S1_38  and  O6_17 
REMARK    9  A    between atoms: C1_20  and  O4_19 
REMARK   10  A    between atoms: C6_23  and  C5_22 
REMARK   11  A    between atoms: O4_27  and  C4_26 
REMARK   12  A    between atoms: O3_30  and  C3_29 
REMARK   13  A    between atoms: O2_33  and  C2_32 
REMARK   14  A    between atoms: O2_33  and  S1_34 
ROOT
ATOM      1  C1  UYS d   2     -27.541  36.640  31.578  0.00  0.00     0.283 C 
ATOM      2  C2  UYS d   2     -27.918  35.122  31.427  0.00  0.00     0.181 C 
ATOM      3  C3  UYS d   2     -26.720  34.346  31.989  0.00  0.00     0.178 C 
ATOM      4  C4  UYS d   2     -25.498  34.656  31.009  0.00  0.00     0.186 C 
ATOM      5  C5  UYS d   2     -25.119  36.099  31.051  0.00  0.00     0.181 C 
ATOM      6  O5  UYS d   2     -26.373  36.945  30.743  0.00  0.00    -0.349 OA
ENDROOT
BRANCH   4   7
ATOM      7  O4  UYS d   2     -24.249  33.925  31.402  0.00  0.00    -0.348 OA
BRANCH   7   8
ATOM      8  C1  2UA d   3     -23.991  33.800  32.954  0.00  0.00     0.294 C 
ATOM      9  C2  2UA d   3     -23.444  32.400  33.157  0.00  0.00     0.231 C 
ATOM     10  C3  2UA d   3     -22.916  32.241  34.622  0.00  0.00     0.185 C 
ATOM     11  C4  2UA d   3     -21.914  33.351  35.030  0.00  0.00     0.189 C 
ATOM     12  C5  2UA d   3     -22.505  34.780  34.796  0.00  0.00     0.256 C 
ATOM     13  O5  2UA d   3     -23.116  34.917  33.397  0.00  0.00    -0.340 OA
BRANCH   9  14
ATOM     14  O2  2UA d   3     -24.488  31.408  32.865  0.00  0.00    -0.244 OA
BRANCH  14  15
ATOM     15  S1  SO3 d   4     -24.351  30.518  31.575  0.00  0.00     0.252 S 
ATOM     16  O3  SO3 d   4     -23.136  30.978  30.944  0.00  0.00    -0.572 OA
ATOM     17  O1  SO3 d   4     -25.547  30.751  30.774  0.00  0.00    -0.572 OA
ATOM     18  O2  SO3 d   4     -24.234  29.195  32.068  0.00  0.00    -0.572 OA
ENDBRANCH  14  15
ENDBRANCH   9  14
BRANCH  10  19
ATOM     19  O3  2UA d   3     -22.249  30.950  34.832  0.00  0.00    -0.390 OA
ATOM     20  H3O 2UA d   3     -22.851  30.253  34.569  0.00  0.00     0.210 HD
ENDBRANCH  10  19
BRANCH  11  21
ATOM     21  O4  2UA d   3     -21.393  33.313  36.369  0.00  0.00    -0.390 OA
ATOM     22  H4O 2UA d   3     -21.366  32.370  36.536  0.00  0.00     0.210 HD
ENDBRANCH  11  21
BRANCH  12  23
ATOM     23  C6  2UA d   3     -23.471  35.129  35.977  0.00  0.00     0.206 C 
ATOM     24  O6A 2UA d   3     -22.941  35.596  37.010  0.00  0.00    -0.646 OA
ATOM     25  O6B 2UA d   3     -24.695  34.850  35.985  0.00  0.00    -0.646 OA
ENDBRANCH  12  23
ENDBRANCH   7   8
ENDBRANCH   4   7
BRANCH   5  26
ATOM     26  C6  UYS d   2     -24.056  36.512  30.028  0.00  0.00     0.227 C 
BRANCH  26  27
ATOM     27  O6  UYS d   2     -24.701  37.077  28.930  0.00  0.00    -0.254 OA
BRANCH  27  28
ATOM     28  S1  SO3 d   5     -24.381  38.449  28.387  0.00  0.00     0.251 S 
ATOM     29  O1  SO3 d   5     -23.968  39.300  29.490  0.00  0.00    -0.572 OA
ATOM     30  O3  SO3 d   5     -23.301  38.309  27.440  0.00  0.00    -0.572 OA
ATOM     31  O2  SO3 d   5     -25.613  38.827  27.808  0.00  0.00    -0.572 OA
ENDBRANCH  27  28
ENDBRANCH  26  27
ENDBRANCH   5  26
BRANCH   3  32
ATOM     32  O3  UYS d   2     -26.983  32.888  32.096  0.00  0.00    -0.391 OA
ATOM     33  H3O UYS d   2     -27.556  32.542  31.413  0.00  0.00     0.210 HD
ENDBRANCH   3  32
BRANCH   2  34
ATOM     34  N2  UYS d   2     -29.216  34.841  32.135  0.00  0.00    -0.289 N 
ATOM     35  H2N UYS d   2     -29.386  35.225  33.055  0.00  0.00     0.175 HD
BRANCH  34  36
ATOM     36  S1  UYS d   2     -30.339  33.951  31.435  0.00  0.00     0.205 S 
ATOM     37  O1S UYS d   2     -29.792  32.771  30.841  0.00  0.00    -0.578 OA
ATOM     38  O3S UYS d   2     -31.222  33.575  32.551  0.00  0.00    -0.578 OA
ATOM     39  O2S UYS d   2     -31.068  34.700  30.433  0.00  0.00    -0.578 OA
ENDBRANCH  34  36
ENDBRANCH   2  34
BRANCH   1  40
ATOM     40  O1  ROH d   1     -27.187  37.117  32.914  0.00  0.00    -0.369 OA
ATOM     41  HO1 ROH d   1     -26.935  38.036  32.787  0.00  0.00     0.212 HD
ENDBRANCH   1  40
TORSDOF 14
ENDMDL
MODEL 5
REMARK VINA RESULT:    -6.193      2.724      6.891
REMARK INTER + INTRA:         -13.102
REMARK INTER:                 -10.355
REMARK INTRA:                  -2.747
REMARK UNBOUND:                -2.564
REMARK  14 active torsions:
REMARK  status: ('A' for Active; 'I' for Inactive)
REMARK    1  A    between atoms: C1_3  and  O1_2 
REMARK    2  A    between atoms: C2_4  and  N2_5 
REMARK    3  A    between atoms: S1_7  and  N2_5 
REMARK    4  A    between atoms: O3_12  and  C3_11 
REMARK    5  A    between atoms: C4_14  and  O4_19 
REMARK    6  A    between atoms: C6_16  and  C5_15 
REMARK    7  A    between atoms: C6_16  and  O6_17 
REMARK    8  A    between atoms: S1_38  and  O6_17 
REMARK    9  A    between atoms: C1_20  and  O4_19 
REMARK   10  A    between atoms: C6_23  and  C5_22 
REMARK   11  A    between atoms: O4_27  and  C4_26 
REMARK   12  A    between atoms: O3_30  and  C3_29 
REMARK   13  A    between atoms: O2_33  and  C2_32 
REMARK   14  A    between atoms: O2_33  and  S1_34 
ROOT
ATOM      1  C1  UYS d   2     -22.715  32.302  31.872  0.00  0.00     0.283 C 
ATOM      2  C2  UYS d   2     -22.838  32.691  33.390  0.00  0.00     0.181 C 
ATOM      3  C3  UYS d   2     -24.249  33.273  33.550  0.00  0.00     0.178 C 
ATOM      4  C4  UYS d   2     -24.267  34.617  32.688  0.00  0.00     0.186 C 
ATOM      5  C5  UYS d   2     -24.094  34.335  31.234  0.00  0.00     0.181 C 
ATOM      6  O5  UYS d   2     -22.802  33.512  31.044  0.00  0.00    -0.349 OA
ENDROOT
BRANCH   4   7
ATOM      7  O4  UYS d   2     -25.580  35.338  32.780  0.00  0.00    -0.348 OA
BRANCH   7   8
ATOM      8  C1  2UA d   3     -26.859  34.417  32.859  0.00  0.00     0.294 C 
ATOM      9  C2  2UA d   3     -27.711  35.010  33.966  0.00  0.00     0.231 C 
ATOM     10  C3  2UA d   3     -29.122  34.333  33.973  0.00  0.00     0.185 C 
ATOM     11  C4  2UA d   3     -29.817  34.364  32.589  0.00  0.00     0.189 C 
ATOM     12  C5  2UA d   3     -28.908  33.757  31.470  0.00  0.00     0.256 C 
ATOM     13  O5  2UA d   3     -27.490  34.340  31.516  0.00  0.00    -0.340 OA
BRANCH   9  14
ATOM     14  O2  2UA d   3     -27.039  34.837  35.260  0.00  0.00    -0.244 OA
BRANCH  14  15
ATOM     15  S1  SO3 d   4     -26.834  36.094  36.185  0.00  0.00     0.252 S 
ATOM     16  O3  SO3 d   4     -26.623  37.189  35.267  0.00  0.00    -0.572 OA
ATOM     17  O1  SO3 d   4     -25.679  35.811  37.029  0.00  0.00    -0.572 OA
ATOM     18  O2  SO3 d   4     -28.053  36.214  36.895  0.00  0.00    -0.572 OA
ENDBRANCH  14  15
ENDBRANCH   9  14
BRANCH  10  19
ATOM     19  O3  2UA d   3     -30.033  34.966  34.935  0.00  0.00    -0.390 OA
ATOM     20  H3O 2UA d   3     -30.670  35.489  34.447  0.00  0.00     0.210 HD
ENDBRANCH  10  19
BRANCH  11  21
ATOM     21  O4  2UA d   3     -31.107  33.738  32.481  0.00  0.00    -0.390 OA
ATOM     22  H4O 2UA d   3     -30.911  32.996  31.908  0.00  0.00     0.210 HD
ENDBRANCH  11  21
BRANCH  12  23
ATOM     23  C6  2UA d   3     -28.983  32.195  31.545  0.00  0.00     0.206 C 
ATOM     24  O6A 2UA d   3     -28.175  31.636  32.319  0.00  0.00    -0.646 OA
ATOM     25  O6B 2UA d   3     -29.703  31.493  30.795  0.00  0.00    -0.646 OA
ENDBRANCH  12  23
ENDBRANCH   7   8
ENDBRANCH   4   7
BRANCH   5  26
ATOM     26  C6  UYS d   2     -23.948  35.579  30.352  0.00  0.00     0.227 C 
BRANCH  26  27
ATOM     27  O6  UYS d   2     -25.118  35.730  29.610  0.00  0.00    -0.254 OA
BRANCH  27  28
ATOM     28  S1  SO3 d   5     -25.690  37.070  29.214  0.00  0.00     0.251 S 
ATOM     29  O1  SO3 d   5     -24.783  37.702  28.271  0.00  0.00    -0.572 OA
ATOM     30  O3  SO3 d   5     -26.969  36.837  28.588  0.00  0.00    -0.572 OA
ATOM     31  O2  SO3 d   5     -25.768  37.734  30.459  0.00  0.00    -0.572 OA
ENDBRANCH  27  28
ENDBRANCH  26  27
ENDBRANCH   5  26
BRANCH   3  32
ATOM     32  O3  UYS d   2     -24.605  33.524  34.969  0.00  0.00    -0.391 OA
ATOM     33  H3O UYS d   2     -24.175  34.288  35.353  0.00  0.00     0.210 HD
ENDBRANCH   3  32
BRANCH   2  34
ATOM     34  N2  UYS d   2     -22.572  31.486  34.252  0.00  0.00    -0.289 N 
ATOM     35  H2N UYS d   2     -22.888  30.571  33.957  0.00  0.00     0.175 HD
BRANCH  34  36
ATOM     36  S1  UYS d   2     -21.777  31.638  35.626  0.00  0.00     0.205 S 
ATOM     37  O1S UYS d   2     -22.661  31.726  36.747  0.00  0.00    -0.578 OA
ATOM     38  O3S UYS d   2     -20.999  30.393  35.710  0.00  0.00    -0.578 OA
ATOM     39  O2S UYS d   2     -20.902  32.792  35.613  0.00  0.00    -0.578 OA
ENDBRANCH  34  36
ENDBRANCH   2  34
BRANCH   1  40
ATOM     40  O1  ROH d   1     -23.723  31.396  31.324  0.00  0.00    -0.369 OA
ATOM     41  HO1 ROH d   1     -23.325  30.523  31.383  0.00  0.00     0.212 HD
ENDBRANCH   1  40
TORSDOF 14
ENDMDL
MODEL 6
REMARK VINA RESULT:    -6.168     17.904     21.323
REMARK INTER + INTRA:         -13.059
REMARK INTER:                 -10.789
REMARK INTRA:                  -2.270
REMARK UNBOUND:                -2.564
REMARK  14 active torsions:
REMARK  status: ('A' for Active; 'I' for Inactive)
REMARK    1  A    between atoms: C1_3  and  O1_2 
REMARK    2  A    between atoms: C2_4  and  N2_5 
REMARK    3  A    between atoms: S1_7  and  N2_5 
REMARK    4  A    between atoms: O3_12  and  C3_11 
REMARK    5  A    between atoms: C4_14  and  O4_19 
REMARK    6  A    between atoms: C6_16  and  C5_15 
REMARK    7  A    between atoms: C6_16  and  O6_17 
REMARK    8  A    between atoms: S1_38  and  O6_17 
REMARK    9  A    between atoms: C1_20  and  O4_19 
REMARK   10  A    between atoms: C6_23  and  C5_22 
REMARK   11  A    between atoms: O4_27  and  C4_26 
REMARK   12  A    between atoms: O3_30  and  C3_29 
REMARK   13  A    between atoms: O2_33  and  C2_32 
REMARK   14  A    between atoms: O2_33  and  S1_34 
ROOT
ATOM      1  C1  UYS d   2     -38.377  44.803  15.074  0.00  0.00     0.283 C 
ATOM      2  C2  UYS d   2     -39.016  43.465  15.596  0.00  0.00     0.181 C 
ATOM      3  C3  UYS d   2     -39.525  43.780  17.009  0.00  0.00     0.178 C 
ATOM      4  C4  UYS d   2     -38.225  44.086  17.884  0.00  0.00     0.186 C 
ATOM      5  C5  UYS d   2     -37.525  45.315  17.408  0.00  0.00     0.181 C 
ATOM      6  O5  UYS d   2     -37.219  45.154  15.904  0.00  0.00    -0.349 OA
ENDROOT
BRANCH   4   7
ATOM      7  O4  UYS d   2     -38.556  44.370  19.320  0.00  0.00    -0.348 OA
BRANCH   7   8
ATOM      8  C1  2UA d   3     -38.861  43.105  20.212  0.00  0.00     0.294 C 
ATOM      9  C2  2UA d   3     -38.109  43.339  21.508  0.00  0.00     0.231 C 
ATOM     10  C3  2UA d   3     -38.532  42.271  22.571  0.00  0.00     0.185 C 
ATOM     11  C4  2UA d   3     -40.067  42.184  22.766  0.00  0.00     0.189 C 
ATOM     12  C5  2UA d   3     -40.812  41.955  21.410  0.00  0.00     0.256 C 
ATOM     13  O5  2UA d   3     -40.333  42.931  20.330  0.00  0.00    -0.340 OA
BRANCH   9  14
ATOM     14  O2  2UA d   3     -36.661  43.289  21.262  0.00  0.00    -0.244 OA
BRANCH  14  15
ATOM     15  S1  SO3 d   4     -35.755  44.450  21.817  0.00  0.00     0.252 S 
ATOM     16  O3  SO3 d   4     -36.551  45.644  21.650  0.00  0.00    -0.572 OA
ATOM     17  O1  SO3 d   4     -34.534  44.448  21.019  0.00  0.00    -0.572 OA
ATOM     18  O2  SO3 d   4     -35.555  44.122  23.180  0.00  0.00    -0.572 OA
ENDBRANCH  14  15
ENDBRANCH   9  14
BRANCH  10  19
ATOM     19  O3  2UA d   3     -37.937  42.535  23.887  0.00  0.00    -0.390 OA
ATOM     20  H3O 2UA d   3     -36.985  42.558  23.789  0.00  0.00     0.210 HD
ENDBRANCH  10  19
BRANCH  11  21
ATOM     21  O4  2UA d   3     -40.562  41.209  23.700  0.00  0.00    -0.390 OA
ATOM     22  H4O 2UA d   3     -40.922  40.546  23.109  0.00  0.00     0.210 HD
ENDBRANCH  11  21
BRANCH  12  23
ATOM     23  C6  2UA d   3     -40.710  40.441  21.024  0.00  0.00     0.206 C 
ATOM     24  O6A 2UA d   3     -41.647  39.978  20.337  0.00  0.00    -0.646 OA
ATOM     25  O6B 2UA d   3     -39.829  39.665  21.467  0.00  0.00    -0.646 OA
ENDBRANCH  12  23
ENDBRANCH   7   8
ENDBRANCH   4   7
BRANCH   5  26
ATOM     26  C6  UYS d   2     -36.185  45.596  18.096  0.00  0.00     0.227 C 
BRANCH  26  27
ATOM     27  O6  UYS d   2     -35.265  44.642  17.667  0.00  0.00    -0.254 OA
BRANCH  27  28
ATOM     28  S1  SO3 d   5     -33.907  44.985  17.102  0.00  0.00     0.251 S 
ATOM     29  O1  SO3 d   5     -33.752  44.309  15.824  0.00  0.00    -0.572 OA
ATOM     30  O3  SO3 d   5     -33.855  46.415  16.912  0.00  0.00    -0.572 OA
ATOM     31  O2  SO3 d   5     -33.042  44.503  18.109  0.00  0.00    -0.572 OA
ENDBRANCH  27  28
ENDBRANCH  26  27
ENDBRANCH   5  26
BRANCH   3  32
ATOM     32  O3  UYS d   2     -40.329  42.672  17.585  0.00  0.00    -0.391 OA
ATOM     33  H3O UYS d   2     -41.246  42.895  17.745  0.00  0.00     0.210 HD
ENDBRANCH   3  32
BRANCH   2  34
ATOM     34  N2  UYS d   2     -40.090  43.004  14.648  0.00  0.00    -0.289 N 
ATOM     35  H2N UYS d   2     -41.014  43.413  14.689  0.00  0.00     0.175 HD
BRANCH  34  36
ATOM     36  S1  UYS d   2     -39.775  41.883  13.558  0.00  0.00     0.205 S 
ATOM     37  O1S UYS d   2     -39.482  42.449  12.278  0.00  0.00    -0.578 OA
ATOM     38  O3S UYS d   2     -38.574  41.219  14.088  0.00  0.00    -0.578 OA
ATOM     39  O2S UYS d   2     -40.867  40.941  13.428  0.00  0.00    -0.578 OA
ENDBRANCH  34  36
ENDBRANCH   2  34
BRANCH   1  40
ATOM     40  O1  ROH d   1     -39.220  45.998  15.075  0.00  0.00    -0.369 OA
ATOM     41  HO1 ROH d   1     -39.920  45.805  14.446  0.00  0.00     0.212 HD
ENDBRANCH   1  40
TORSDOF 14
ENDMDL
MODEL 7
REMARK VINA RESULT:    -6.099     18.753     22.490
REMARK INTER + INTRA:         -12.942
REMARK INTER:                 -10.289
REMARK INTRA:                  -2.654
REMARK UNBOUND:                -2.564
REMARK  14 active torsions:
REMARK  status: ('A' for Active; 'I' for Inactive)
REMARK    1  A    between atoms: C1_3  and  O1_2 
REMARK    2  A    between atoms: C2_4  and  N2_5 
REMARK    3  A    between atoms: S1_7  and  N2_5 
REMARK    4  A    between atoms: O3_12  and  C3_11 
REMARK    5  A    between atoms: C4_14  and  O4_19 
REMARK    6  A    between atoms: C6_16  and  C5_15 
REMARK    7  A    between atoms: C6_16  and  O6_17 
REMARK    8  A    between atoms: S1_38  and  O6_17 
REMARK    9  A    between atoms: C1_20  and  O4_19 
REMARK   10  A    between atoms: C6_23  and  C5_22 
REMARK   11  A    between atoms: O4_27  and  C4_26 
REMARK   12  A    between atoms: O3_30  and  C3_29 
REMARK   13  A    between atoms: O2_33  and  C2_32 
REMARK   14  A    between atoms: O2_33  and  S1_34 
ROOT
ATOM      1  C1  UYS d   2     -43.407  31.954  23.885  0.00  0.00     0.283 C 
ATOM      2  C2  UYS d   2     -42.847  30.735  24.704  0.00  0.00     0.181 C 
ATOM      3  C3  UYS d   2     -42.366  29.724  23.655  0.00  0.00     0.178 C 
ATOM      4  C4  UYS d   2     -43.675  29.243  22.879  0.00  0.00     0.186 C 
ATOM      5  C5  UYS d   2     -44.303  30.365  22.122  0.00  0.00     0.181 C 
ATOM      6  O5  UYS d   2     -44.572  31.528  23.100  0.00  0.00    -0.349 OA
ENDROOT
BRANCH   4   7
ATOM      7  O4  UYS d   2     -43.375  28.205  21.838  0.00  0.00    -0.348 OA
BRANCH   7   8
ATOM      8  C1  2UA d   3     -44.022  26.786  22.083  0.00  0.00     0.294 C 
ATOM      9  C2  2UA d   3     -43.819  26.025  20.787  0.00  0.00     0.231 C 
ATOM     10  C3  2UA d   3     -44.197  24.520  20.988  0.00  0.00     0.185 C 
ATOM     11  C4  2UA d   3     -43.475  23.869  22.194  0.00  0.00     0.189 C 
ATOM     12  C5  2UA d   3     -43.693  24.685  23.510  0.00  0.00     0.256 C 
ATOM     13  O5  2UA d   3     -43.423  26.179  23.301  0.00  0.00    -0.340 OA
BRANCH   9  14
ATOM     14  O2  2UA d   3     -44.628  26.632  19.720  0.00  0.00    -0.244 OA
BRANCH  14  15
ATOM     15  S1  SO3 d   4     -43.931  27.018  18.363  0.00  0.00     0.252 S 
ATOM     16  O3  SO3 d   4     -44.950  27.723  17.620  0.00  0.00    -0.572 OA
ATOM     17  O1  SO3 d   4     -43.512  25.770  17.736  0.00  0.00    -0.572 OA
ATOM     18  O2  SO3 d   4     -42.860  27.863  18.743  0.00  0.00    -0.572 OA
ENDBRANCH  14  15
ENDBRANCH   9  14
BRANCH  10  19
ATOM     19  O3  2UA d   3     -43.889  23.710  19.802  0.00  0.00    -0.390 OA
ATOM     20  H3O 2UA d   3     -44.655  23.174  19.596  0.00  0.00     0.210 HD
ENDBRANCH  10  19
BRANCH  11  21
ATOM     21  O4  2UA d   3     -43.778  22.493  22.484  0.00  0.00    -0.390 OA
ATOM     22  H4O 2UA d   3     -42.957  22.063  22.239  0.00  0.00     0.210 HD
ENDBRANCH  11  21
BRANCH  12  23
ATOM     23  C6  2UA d   3     -45.107  24.343  24.090  0.00  0.00     0.206 C 
ATOM     24  O6A 2UA d   3     -45.886  25.307  24.260  0.00  0.00    -0.646 OA
ATOM     25  O6B 2UA d   3     -45.437  23.204  24.501  0.00  0.00    -0.646 OA
ENDBRANCH  12  23
ENDBRANCH   7   8
ENDBRANCH   4   7
BRANCH   5  26
ATOM     26  C6  UYS d   2     -45.649  30.026  21.472  0.00  0.00     0.227 C 
BRANCH  26  27
ATOM     27  O6  UYS d   2     -45.498  30.102  20.089  0.00  0.00    -0.254 OA
BRANCH  27  28
ATOM     28  S1  SO3 d   5     -45.927  31.294  19.265  0.00  0.00     0.251 S 
ATOM     29  O1  SO3 d   5     -44.831  32.247  19.223  0.00  0.00    -0.572 OA
ATOM     30  O3  SO3 d   5     -46.225  30.826  17.933  0.00  0.00    -0.572 OA
ATOM     31  O2  SO3 d   5     -47.054  31.754  19.983  0.00  0.00    -0.572 OA
ENDBRANCH  27  28
ENDBRANCH  26  27
ENDBRANCH   5  26
BRANCH   3  32
ATOM     32  O3  UYS d   2     -41.631  28.582  24.257  0.00  0.00    -0.391 OA
ATOM     33  H3O UYS d   2     -41.486  27.850  23.659  0.00  0.00     0.210 HD
ENDBRANCH   3  32
BRANCH   2  34
ATOM     34  N2  UYS d   2     -41.767  31.201  25.644  0.00  0.00    -0.289 N 
ATOM     35  H2N UYS d   2     -41.256  32.051  25.450  0.00  0.00     0.175 HD
BRANCH  34  36
ATOM     36  S1  UYS d   2     -41.433  30.367  26.962  0.00  0.00     0.205 S 
ATOM     37  O1S UYS d   2     -42.317  29.255  27.129  0.00  0.00    -0.578 OA
ATOM     38  O3S UYS d   2     -40.067  29.877  26.720  0.00  0.00    -0.578 OA
ATOM     39  O2S UYS d   2     -41.479  31.198  28.148  0.00  0.00    -0.578 OA
ENDBRANCH  34  36
ENDBRANCH   2  34
BRANCH   1  40
ATOM     40  O1  ROH d   1     -42.510  32.586  22.918  0.00  0.00    -0.369 OA
ATOM     41  HO1 ROH d   1     -41.734  32.020  22.897  0.00  0.00     0.212 HD
ENDBRANCH   1  40
TORSDOF 14
ENDMDL
MODEL 8
REMARK VINA RESULT:    -6.084     19.057     22.599
REMARK INTER + INTRA:         -12.917
REMARK INTER:                 -10.163
REMARK INTRA:                  -2.754
REMARK UNBOUND:                -2.564
REMARK  14 active torsions:
REMARK  status: ('A' for Active; 'I' for Inactive)
REMARK    1  A    between atoms: C1_3  and  O1_2 
REMARK    2  A    between atoms: C2_4  and  N2_5 
REMARK    3  A    between atoms: S1_7  and  N2_5 
REMARK    4  A    between atoms: O3_12  and  C3_11 
REMARK    5  A    between atoms: C4_14  and  O4_19 
REMARK    6  A    between atoms: C6_16  and  C5_15 
REMARK    7  A    between atoms: C6_16  and  O6_17 
REMARK    8  A    between atoms: S1_38  and  O6_17 
REMARK    9  A    between atoms: C1_20  and  O4_19 
REMARK   10  A    between atoms: C6_23  and  C5_22 
REMARK   11  A    between atoms: O4_27  and  C4_26 
REMARK   12  A    between atoms: O3_30  and  C3_29 
REMARK   13  A    between atoms: O2_33  and  C2_32 
REMARK   14  A    between atoms: O2_33  and  S1_34 
ROOT
ATOM      1  C1  UYS d   2     -40.069  43.317  18.214  0.00  0.00     0.283 C 
ATOM      2  C2  UYS d   2     -38.711  42.967  18.924  0.00  0.00     0.181 C 
ATOM      3  C3  UYS d   2     -37.724  44.052  18.475  0.00  0.00     0.178 C 
ATOM      4  C4  UYS d   2     -37.531  43.845  16.904  0.00  0.00     0.186 C 
ATOM      5  C5  UYS d   2     -38.800  44.101  16.161  0.00  0.00     0.181 C 
ATOM      6  O5  UYS d   2     -39.908  43.207  16.759  0.00  0.00    -0.349 OA
ENDROOT
BRANCH   4   7
ATOM      7  O4  UYS d   2     -36.547  44.812  16.315  0.00  0.00    -0.348 OA
BRANCH   7   8
ATOM      8  C1  2UA d   3     -36.669  46.302  16.820  0.00  0.00     0.294 C 
ATOM      9  C2  2UA d   3     -35.249  46.737  17.131  0.00  0.00     0.231 C 
ATOM     10  C3  2UA d   3     -35.211  48.277  17.405  0.00  0.00     0.185 C 
ATOM     11  C4  2UA d   3     -35.869  49.111  16.276  0.00  0.00     0.189 C 
ATOM     12  C5  2UA d   3     -37.326  48.629  15.973  0.00  0.00     0.256 C 
ATOM     13  O5  2UA d   3     -37.393  47.107  15.802  0.00  0.00    -0.340 OA
BRANCH   9  14
ATOM     14  O2  2UA d   3     -34.739  45.985  18.286  0.00  0.00    -0.244 OA
BRANCH  14  15
ATOM     15  S1  SO3 d   4     -33.382  45.200  18.143  0.00  0.00     0.252 S 
ATOM     16  O3  SO3 d   4     -33.423  44.648  16.808  0.00  0.00    -0.572 OA
ATOM     17  O1  SO3 d   4     -33.371  44.187  19.192  0.00  0.00    -0.572 OA
ATOM     18  O2  SO3 d   4     -32.382  46.192  18.285  0.00  0.00    -0.572 OA
ENDBRANCH  14  15
ENDBRANCH   9  14
BRANCH  10  19
ATOM     19  O3  2UA d   3     -33.840  48.774  17.575  0.00  0.00    -0.390 OA
ATOM     20  H3O 2UA d   3     -33.434  48.297  18.299  0.00  0.00     0.210 HD
ENDBRANCH  10  19
BRANCH  11  21
ATOM     21  O4  2UA d   3     -35.914  50.538  16.446  0.00  0.00    -0.390 OA
ATOM     22  H4O 2UA d   3     -35.687  50.841  15.566  0.00  0.00     0.210 HD
ENDBRANCH  11  21
BRANCH  12  23
ATOM     23  C6  2UA d   3     -38.291  49.216  17.056  0.00  0.00     0.206 C 
ATOM     24  O6A 2UA d   3     -38.660  50.400  16.890  0.00  0.00    -0.646 OA
ATOM     25  O6B 2UA d   3     -38.597  48.618  18.117  0.00  0.00    -0.646 OA
ENDBRANCH  12  23
ENDBRANCH   7   8
ENDBRANCH   4   7
BRANCH   5  26
ATOM     26  C6  UYS d   2     -38.743  43.777  14.665  0.00  0.00     0.227 C 
BRANCH  26  27
ATOM     27  O6  UYS d   2     -39.156  42.459  14.485  0.00  0.00    -0.254 OA
BRANCH  27  28
ATOM     28  S1  SO3 d   5     -39.367  41.825  13.131  0.00  0.00     0.251 S 
ATOM     29  O1  SO3 d   5     -38.208  41.007  12.815  0.00  0.00    -0.572 OA
ATOM     30  O3  SO3 d   5     -40.548  40.999  13.209  0.00  0.00    -0.572 OA
ATOM     31  O2  SO3 d   5     -39.508  42.958  12.298  0.00  0.00    -0.572 OA
ENDBRANCH  27  28
ENDBRANCH  26  27
ENDBRANCH   5  26
BRANCH   3  32
ATOM     32  O3  UYS d   2     -36.431  43.983  19.202  0.00  0.00    -0.391 OA
ATOM     33  H3O UYS d   2     -36.083  44.835  19.467  0.00  0.00     0.210 HD
ENDBRANCH   3  32
BRANCH   2  34
ATOM     34  N2  UYS d   2     -38.913  42.902  20.414  0.00  0.00    -0.289 N 
ATOM     35  H2N UYS d   2     -39.507  43.578  20.876  0.00  0.00     0.175 HD
BRANCH  34  36
ATOM     36  S1  UYS d   2     -38.207  41.759  21.274  0.00  0.00     0.205 S 
ATOM     37  O1S UYS d   2     -37.981  42.170  22.625  0.00  0.00    -0.578 OA
ATOM     38  O3S UYS d   2     -39.184  40.660  21.251  0.00  0.00    -0.578 OA
ATOM     39  O2S UYS d   2     -36.952  41.343  20.683  0.00  0.00    -0.578 OA
ENDBRANCH  34  36
ENDBRANCH   2  34
BRANCH   1  40
ATOM     40  O1  ROH d   1     -40.621  44.653  18.434  0.00  0.00    -0.369 OA
ATOM     41  HO1 ROH d   1     -41.516  44.608  18.088  0.00  0.00     0.212 HD
ENDBRANCH   1  40
TORSDOF 14
ENDMDL
MODEL 9
REMARK VINA RESULT:    -6.076     30.569     33.241
REMARK INTER + INTRA:         -12.903
REMARK INTER:                 -10.339
REMARK INTRA:                  -2.564
REMARK UNBOUND:                -2.564
REMARK  14 active torsions:
REMARK  status: ('A' for Active; 'I' for Inactive)
REMARK    1  A    between atoms: C1_3  and  O1_2 
REMARK    2  A    between atoms: C2_4  and  N2_5 
REMARK    3  A    between atoms: S1_7  and  N2_5 
REMARK    4  A    between atoms: O3_12  and  C3_11 
REMARK    5  A    between atoms: C4_14  and  O4_19 
REMARK    6  A    between atoms: C6_16  and  C5_15 
REMARK    7  A    between atoms: C6_16  and  O6_17 
REMARK    8  A    between atoms: S1_38  and  O6_17 
REMARK    9  A    between atoms: C1_20  and  O4_19 
REMARK   10  A    between atoms: C6_23  and  C5_22 
REMARK   11  A    between atoms: O4_27  and  C4_26 
REMARK   12  A    between atoms: O3_30  and  C3_29 
REMARK   13  A    between atoms: O2_33  and  C2_32 
REMARK   14  A    between atoms: O2_33  and  S1_34 
ROOT
ATOM      1  C1  UYS d   2     -36.280  29.449   2.604  0.00  0.00     0.283 C 
ATOM      2  C2  UYS d   2     -35.393  28.326   3.255  0.00  0.00     0.181 C 
ATOM      3  C3  UYS d   2     -35.548  27.103   2.342  0.00  0.00     0.178 C 
ATOM      4  C4  UYS d   2     -37.077  26.660   2.461  0.00  0.00     0.186 C 
ATOM      5  C5  UYS d   2     -37.991  27.706   1.917  0.00  0.00     0.181 C 
ATOM      6  O5  UYS d   2     -37.690  29.041   2.631  0.00  0.00    -0.349 OA
ENDROOT
BRANCH   4   7
ATOM      7  O4  UYS d   2     -37.383  25.433   1.653  0.00  0.00    -0.348 OA
BRANCH   7   8
ATOM      8  C1  2UA d   3     -37.308  24.065   2.436  0.00  0.00     0.294 C 
ATOM      9  C2  2UA d   3     -38.376  23.188   1.809  0.00  0.00     0.231 C 
ATOM     10  C3  2UA d   3     -38.234  21.720   2.334  0.00  0.00     0.185 C 
ATOM     11  C4  2UA d   3     -36.803  21.150   2.164  0.00  0.00     0.189 C 
ATOM     12  C5  2UA d   3     -35.727  22.085   2.809  0.00  0.00     0.256 C 
ATOM     13  O5  2UA d   3     -35.917  23.545   2.382  0.00  0.00    -0.340 OA
BRANCH   9  14
ATOM     14  O2  2UA d   3     -39.708  23.727   2.114  0.00  0.00    -0.244 OA
BRANCH  14  15
ATOM     15  S1  SO3 d   4     -40.758  23.864   0.950  0.00  0.00     0.252 S 
ATOM     16  O3  SO3 d   4     -41.861  24.586   1.540  0.00  0.00    -0.572 OA
ATOM     17  O1  SO3 d   4     -41.104  22.510   0.534  0.00  0.00    -0.572 OA
ATOM     18  O2  SO3 d   4     -40.089  24.621  -0.043  0.00  0.00    -0.572 OA
ENDBRANCH  14  15
ENDBRANCH   9  14
BRANCH  10  19
ATOM     19  O3  2UA d   3     -39.155  20.799   1.654  0.00  0.00    -0.390 OA
ATOM     20  H3O 2UA d   3     -39.041  19.926   2.031  0.00  0.00     0.210 HD
ENDBRANCH  10  19
BRANCH  11  21
ATOM     21  O4  2UA d   3     -36.559  19.817   2.644  0.00  0.00    -0.390 OA
ATOM     22  H4O 2UA d   3     -36.304  19.986   3.552  0.00  0.00     0.210 HD
ENDBRANCH  11  21
BRANCH  12  23
ATOM     23  C6  2UA d   3     -35.709  21.845   4.356  0.00  0.00     0.206 C 
ATOM     24  O6A 2UA d   3     -35.153  20.796   4.750  0.00  0.00    -0.646 OA
ATOM     25  O6B 2UA d   3     -36.319  22.567   5.182  0.00  0.00    -0.646 OA
ENDBRANCH  12  23
ENDBRANCH   7   8
ENDBRANCH   4   7
BRANCH   5  26
ATOM     26  C6  UYS d   2     -39.483  27.428   2.130  0.00  0.00     0.227 C 
BRANCH  26  27
ATOM     27  O6  UYS d   2     -39.932  28.229   3.178  0.00  0.00    -0.254 OA
BRANCH  27  28
ATOM     28  S1  SO3 d   5     -41.363  28.686   3.327  0.00  0.00     0.251 S 
ATOM     29  O1  SO3 d   5     -41.618  28.966   4.730  0.00  0.00    -0.572 OA
ATOM     30  O3  SO3 d   5     -41.526  29.890   2.547  0.00  0.00    -0.572 OA
ATOM     31  O2  SO3 d   5     -42.078  27.573   2.830  0.00  0.00    -0.572 OA
ENDBRANCH  27  28
ENDBRANCH  26  27
ENDBRANCH   5  26
BRANCH   3  32
ATOM     32  O3  UYS d   2     -34.625  25.998   2.706  0.00  0.00    -0.391 OA
ATOM     33  H3O UYS d   2     -33.725  26.277   2.872  0.00  0.00     0.210 HD
ENDBRANCH   3  32
BRANCH   2  34
ATOM     34  N2  UYS d   2     -33.974  28.809   3.394  0.00  0.00    -0.289 N 
ATOM     35  H2N UYS d   2     -33.655  29.610   2.865  0.00  0.00     0.175 HD
BRANCH  34  36
ATOM     36  S1  UYS d   2     -32.967  28.074   4.388  0.00  0.00     0.205 S 
ATOM     37  O1S UYS d   2     -31.966  27.334   3.683  0.00  0.00    -0.578 OA
ATOM     38  O3S UYS d   2     -32.334  29.183   5.118  0.00  0.00    -0.578 OA
ATOM     39  O2S UYS d   2     -33.664  27.190   5.299  0.00  0.00    -0.578 OA
ENDBRANCH  34  36
ENDBRANCH   2  34
BRANCH   1  40
ATOM     40  O1  ROH d   1     -36.013  29.797   1.209  0.00  0.00    -0.369 OA
ATOM     41  HO1 ROH d   1     -35.344  30.485   1.252  0.00  0.00     0.212 HD
ENDBRANCH   1  40
TORSDOF 14
ENDMDL
