@<TRIPOS>MOLECULE
*****
 53 54 0 0 0
SMALL
GASTEIGER

@<TRIPOS>ATOM
      1 HO1        62.1300   53.7320   34.8150 H       1  ROH1        0.2125
      2 O1         61.5540   52.9640   34.7770 O.3     1  ROH1       -0.3656
      3 C1         61.4130   52.6740   33.3510 C.3     2  UYS2        0.1762
      4 H1         60.8410   53.4770   32.8750 H       2  UYS2        0.0925
      5 C2         60.7140   51.3240   32.9510 C.3     2  UYS2        0.1079
      6 H2         60.6520   51.1610   31.8710 H       2  UYS2        0.0554
      7 N2         59.2590   51.3660   33.3340 N.3     2  UYS2       -0.1775
      8 H2N        58.9570   50.9950   34.2250 H       2  UYS2        0.1487
      9 S1         58.1850   52.0110   32.3470 S.3     2  UYS2        0.0767
     10 O1S        58.8050   52.7810   31.3130 O.3     2  UYS2       -0.0534
     11 O2S        57.2340   52.8400   33.0580 O.3     2  UYS2       -0.0534
     12 O3S        57.5180   50.8410   31.7550 O.3     2  UYS2       -0.0534
     13 C3         61.5140   50.2240   33.6610 C.3     2  UYS2        0.1055
     14 H3         61.6520   50.4270   34.7230 H       2  UYS2        0.0638
     15 O3         60.8760   48.8880   33.5430 O.3     2  UYS2       -0.3874
     16 H3O        61.4570   48.1560   33.7490 H       2  UYS2        0.2100
     17 C4         62.9680   50.2460   33.0020 C.3     2  UYS2        0.1176
     18 H4         62.7840   50.1150   31.9320 H       2  UYS2        0.0650
     19 C5         63.6760   51.5280   33.2870 C.3     2  UYS2        0.1158
     20 H5         63.8170   51.5350   34.3690 H       2  UYS2        0.0648
     21 C6         65.0170   51.6940   32.5650 C.3     2  UYS2        0.1035
     22 H62        64.8280   52.1480   31.6000 H       2  UYS2        0.0610
     23 H61        65.4790   50.7310   32.3600 H       2  UYS2        0.0610
     24 O6         65.8650   52.4390   33.3820 O.3     2  UYS2       -0.2520
     25 O5         62.7820   52.6970   32.8210 O.3     2  UYS2       -0.3416
     26 O4         63.8670   49.1840   33.5630 O.3     2  UYS2       -0.3401
     27 C1         63.7810   47.7750   32.8570 C.3     3  2UA3        0.1915
     28 H1         63.5260   47.9470   31.8120 H       3  2UA3        0.0939
     29 O5         62.8750   46.8910   33.6360 O.3     3  2UA3       -0.3313
     30 C5         62.9210   45.4000   33.2830 C.3     3  2UA3        0.1903
     31 H5         62.3930   44.8190   34.0310 H       3  2UA3        0.0743
     32 C6         62.1280   45.0010   31.9940 C.2     3  2UA3        0.3869
     33 O6B        61.2020   44.1540   31.9770 O.co2   3  2UA3       -0.2433
     34 O6A        62.3650   45.6720   30.9650 O.co2   3  2UA3       -0.2433
     35 C4         64.3920   44.8830   33.1540 C.3     3  2UA3        0.1204
     36 H4         64.8110   45.0730   34.1360 H       3  2UA3        0.0652
     37 O4         64.3300   43.4920   32.7960 O.3     3  2UA3       -0.3860
     38 H4O        65.2500   43.2350   32.8740 H       3  2UA3        0.2100
     39 C3         65.2510   45.8130   32.2600 C.3     3  2UA3        0.1171
     40 H3         64.9640   45.7770   31.2130 H       3  2UA3        0.0649
     41 O3         66.6150   45.2690   32.2460 O.3     3  2UA3       -0.3863
     42 H3O        67.1990   45.9290   31.8710 H       3  2UA3        0.2100
     43 C2         65.2180   47.3080   32.7210 C.3     3  2UA3        0.1644
     44 H2         65.6930   47.3850   33.7030 H       3  2UA3        0.0698
     45 O2         65.9340   48.1670   31.7680 O.3     3  2UA3       -0.2435
     46 S1         67.4340   48.5430   32.0610 S.3     4  SO34       -0.0004
     47 O1         68.2100   47.3160   31.9210 O.2     4  SO34       -0.3452
     48 O2         67.4170   49.0700   33.3750 O.3     4  SO34       -0.2682
     49 O3         67.7560   49.5450   31.0710 O.2     4  SO34       -0.3452
     50 S1         66.3590   53.8230   33.0340 S.3     5  SO35       -0.0008
     51 O1         66.9440   53.7860   31.7040 O.2     5  SO35       -0.3452
     52 O2         67.2980   54.0640   34.0620 O.3     5  SO35       -0.2682
     53 O3         65.2240   54.7140   33.0490 O.2     5  SO35       -0.3452
@<TRIPOS>BOND
     1    34    32   ar
     2    49    46    2
     3    40    39    1
     4    10     9    1
     5    22    21    1
     6    51    50    2
     7    12     9    1
     8    45    46    1
     9    45    43    1
    10    28    27    1
    11     6     5    1
    12    42    41    1
    13    47    46    2
    14    18    17    1
    15    33    32   ar
    16    32    30    1
    17    46    48    1
    18    41    39    1
    19    39    43    1
    20    39    35    1
    21     9    11    1
    22     9     7    1
    23    23    21    1
    24    21    19    1
    25    21    24    1
    26    43    27    1
    27    43    44    1
    28    37    38    1
    29    37    35    1
    30    25    19    1
    31    25     3    1
    32    27    26    1
    33    27    29    1
    34     4     3    1
    35     5     7    1
    36     5     3    1
    37     5    13    1
    38    17    19    1
    39    17    26    1
    40    17    13    1
    41    50    53    2
    42    50    24    1
    43    50    52    1
    44    35    30    1
    45    35    36    1
    46    30    29    1
    47    30    31    1
    48    19    20    1
    49     7     8    1
    50     3     2    1
    51    15    13    1
    52    15    16    1
    53    13    14    1
    54     2     1    1
