MODEL 1
REMARK VINA RESULT:    -5.263      0.000      0.000
REMARK INTER + INTRA:         -11.546
REMARK INTER:                  -8.863
REMARK INTRA:                  -2.683
REMARK UNBOUND:                -2.590
REMARK  14 active torsions:
REMARK  status: ('A' for Active; 'I' for Inactive)
REMARK    1  A    between atoms: C1_3  and  O1_2 
REMARK    2  A    between atoms: C2_4  and  N2_5 
REMARK    3  A    between atoms: S1_7  and  N2_5 
REMARK    4  A    between atoms: O3_12  and  C3_11 
REMARK    5  A    between atoms: C4_14  and  O4_19 
REMARK    6  A    between atoms: C6_16  and  C5_15 
REMARK    7  A    between atoms: C6_16  and  O6_17 
REMARK    8  A    between atoms: S1_38  and  O6_17 
REMARK    9  A    between atoms: C1_20  and  O4_19 
REMARK   10  A    between atoms: C6_23  and  C5_22 
REMARK   11  A    between atoms: O4_27  and  C4_26 
REMARK   12  A    between atoms: O3_30  and  C3_29 
REMARK   13  A    between atoms: O2_33  and  C2_32 
REMARK   14  A    between atoms: O2_33  and  S1_34 
ROOT
ATOM      1  C1  UYS d   2     -16.267   0.192  -9.300  0.00  0.00     0.283 C 
ATOM      2  C2  UYS d   2     -16.656   0.561  -7.822  0.00  0.00     0.181 C 
ATOM      3  C3  UYS d   2     -16.601  -0.761  -7.044  0.00  0.00     0.178 C 
ATOM      4  C4  UYS d   2     -17.761  -1.675  -7.651  0.00  0.00     0.186 C 
ATOM      5  C5  UYS d   2     -17.493  -2.018  -9.078  0.00  0.00     0.181 C 
ATOM      6  O5  UYS d   2     -17.278  -0.709  -9.867  0.00  0.00    -0.349 OA
ENDROOT
BRANCH   4   7
ATOM      7  O4  UYS d   2     -17.869  -3.000  -6.957  0.00  0.00    -0.348 OA
BRANCH   7   8
ATOM      8  C1  2UA d   3     -16.604  -3.937  -7.076  0.00  0.00     0.294 C 
ATOM      9  C2  2UA d   3     -16.276  -4.349  -5.653  0.00  0.00     0.231 C 
ATOM     10  C3  2UA d   3     -15.193  -5.478  -5.662  0.00  0.00     0.185 C 
ATOM     11  C4  2UA d   3     -15.571  -6.676  -6.569  0.00  0.00     0.189 C 
ATOM     12  C5  2UA d   3     -15.915  -6.215  -8.024  0.00  0.00     0.256 C 
ATOM     13  O5  2UA d   3     -16.901  -5.041  -8.026  0.00  0.00    -0.340 OA
BRANCH   9  14
ATOM     14  O2  2UA d   3     -15.813  -3.182  -4.890  0.00  0.00    -0.244 OA
BRANCH  14  15
ATOM     15  S1  SO3 d   4     -16.457  -2.887  -3.485  0.00  0.00     0.252 S 
ATOM     16  O3  SO3 d   4     -16.335  -4.133  -2.763  0.00  0.00    -0.572 OA
ATOM     17  O1  SO3 d   4     -17.838  -2.489  -3.730  0.00  0.00    -0.572 OA
ATOM     18  O2  SO3 d   4     -15.649  -1.864  -2.933  0.00  0.00    -0.572 OA
ENDBRANCH  14  15
ENDBRANCH   9  14
BRANCH  10  19
ATOM     19  O3  2UA d   3     -14.939  -6.010  -4.317  0.00  0.00    -0.390 OA
ATOM     20  H3O 2UA d   3     -14.714  -5.279  -3.740  0.00  0.00     0.210 HD
ENDBRANCH  10  19
BRANCH  11  21
ATOM     21  O4  2UA d   3     -14.626  -7.754  -6.670  0.00  0.00    -0.390 OA
ATOM     22  H4O 2UA d   3     -14.919  -8.188  -7.474  0.00  0.00     0.210 HD
ENDBRANCH  11  21
BRANCH  12  23
ATOM     23  C6  2UA d   3     -14.583  -5.962  -8.804  0.00  0.00     0.206 C 
ATOM     24  O6A 2UA d   3     -14.593  -5.025  -9.634  0.00  0.00    -0.646 OA
ATOM     25  O6B 2UA d   3     -13.578  -6.711  -8.735  0.00  0.00    -0.646 OA
ENDBRANCH  12  23
ENDBRANCH   7   8
ENDBRANCH   4   7
BRANCH   5  26
ATOM     26  C6  UYS d   2     -18.630  -2.766  -9.782  0.00  0.00     0.227 C 
BRANCH  26  27
ATOM     27  O6  UYS d   2     -18.453  -2.637 -11.158  0.00  0.00    -0.254 OA
BRANCH  27  28
ATOM     28  S1  SO3 d   5     -17.795  -3.689 -12.019  0.00  0.00     0.251 S 
ATOM     29  O1  SO3 d   5     -17.711  -4.925 -11.258  0.00  0.00    -0.572 OA
ATOM     30  O3  SO3 d   5     -18.620  -3.884 -13.187  0.00  0.00    -0.572 OA
ATOM     31  O2  SO3 d   5     -16.539  -3.101 -12.289  0.00  0.00    -0.572 OA
ENDBRANCH  27  28
ENDBRANCH  26  27
ENDBRANCH   5  26
BRANCH   3  32
ATOM     32  O3  UYS d   2     -16.761  -0.568  -5.580  0.00  0.00    -0.391 OA
ATOM     33  H3O UYS d   2     -17.668  -0.607  -5.276  0.00  0.00     0.210 HD
ENDBRANCH   3  32
BRANCH   2  34
ATOM     34  N2  UYS d   2     -15.726   1.620  -7.295  0.00  0.00    -0.289 N 
ATOM     35  H2N UYS d   2     -14.736   1.573  -7.496  0.00  0.00     0.175 HD
BRANCH  34  36
ATOM     36  S1  UYS d   2     -16.295   2.834  -6.431  0.00  0.00     0.205 S 
ATOM     37  O1S UYS d   2     -16.910   2.385  -5.220  0.00  0.00    -0.578 OA
ATOM     38  O3S UYS d   2     -15.093   3.618  -6.110  0.00  0.00    -0.578 OA
ATOM     39  O2S UYS d   2     -17.242   3.629  -7.184  0.00  0.00    -0.578 OA
ENDBRANCH  34  36
ENDBRANCH   2  34
BRANCH   1  40
ATOM     40  O1  ROH d   1     -14.991  -0.489  -9.512  0.00  0.00    -0.369 OA
ATOM     41  HO1 ROH d   1     -14.451   0.145  -9.991  0.00  0.00     0.212 HD
ENDBRANCH   1  40
TORSDOF 14
ENDMDL
MODEL 2
REMARK VINA RESULT:    -5.218      0.864      1.369
REMARK INTER + INTRA:         -11.468
REMARK INTER:                  -8.864
REMARK INTRA:                  -2.604
REMARK UNBOUND:                -2.590
REMARK  14 active torsions:
REMARK  status: ('A' for Active; 'I' for Inactive)
REMARK    1  A    between atoms: C1_3  and  O1_2 
REMARK    2  A    between atoms: C2_4  and  N2_5 
REMARK    3  A    between atoms: S1_7  and  N2_5 
REMARK    4  A    between atoms: O3_12  and  C3_11 
REMARK    5  A    between atoms: C4_14  and  O4_19 
REMARK    6  A    between atoms: C6_16  and  C5_15 
REMARK    7  A    between atoms: C6_16  and  O6_17 
REMARK    8  A    between atoms: S1_38  and  O6_17 
REMARK    9  A    between atoms: C1_20  and  O4_19 
REMARK   10  A    between atoms: C6_23  and  C5_22 
REMARK   11  A    between atoms: O4_27  and  C4_26 
REMARK   12  A    between atoms: O3_30  and  C3_29 
REMARK   13  A    between atoms: O2_33  and  C2_32 
REMARK   14  A    between atoms: O2_33  and  S1_34 
ROOT
ATOM      1  C1  UYS d   2     -16.486  -0.405  -9.760  0.00  0.00     0.283 C 
ATOM      2  C2  UYS d   2     -16.816   0.047  -8.291  0.00  0.00     0.181 C 
ATOM      3  C3  UYS d   2     -16.725  -1.227  -7.442  0.00  0.00     0.178 C 
ATOM      4  C4  UYS d   2     -17.905  -2.176  -7.948  0.00  0.00     0.186 C 
ATOM      5  C5  UYS d   2     -17.695  -2.600  -9.362  0.00  0.00     0.181 C 
ATOM      6  O5  UYS d   2     -17.517  -1.338 -10.233  0.00  0.00    -0.349 OA
ENDROOT
BRANCH   4   7
ATOM      7  O4  UYS d   2     -17.980  -3.459  -7.174  0.00  0.00    -0.348 OA
BRANCH   7   8
ATOM      8  C1  2UA d   3     -16.666  -4.333  -7.175  0.00  0.00     0.294 C 
ATOM      9  C2  2UA d   3     -16.405  -4.664  -5.717  0.00  0.00     0.231 C 
ATOM     10  C3  2UA d   3     -15.269  -5.734  -5.609  0.00  0.00     0.185 C 
ATOM     11  C4  2UA d   3     -15.531  -6.989  -6.479  0.00  0.00     0.189 C 
ATOM     12  C5  2UA d   3     -15.809  -6.612  -7.972  0.00  0.00     0.256 C 
ATOM     13  O5  2UA d   3     -16.849  -5.492  -8.088  0.00  0.00    -0.340 OA
BRANCH   9  14
ATOM     14  O2  2UA d   3     -16.048  -3.442  -4.985  0.00  0.00    -0.244 OA
BRANCH  14  15
ATOM     15  S1  SO3 d   4     -16.790  -3.119  -3.635  0.00  0.00     0.252 S 
ATOM     16  O3  SO3 d   4     -16.113  -1.951  -3.120  0.00  0.00    -0.572 OA
ATOM     17  O1  SO3 d   4     -16.649  -4.296  -2.785  0.00  0.00    -0.572 OA
ATOM     18  O2  SO3 d   4     -18.124  -2.842  -4.022  0.00  0.00    -0.572 OA
ENDBRANCH  14  15
ENDBRANCH   9  14
BRANCH  10  19
ATOM     19  O3  2UA d   3     -15.071  -6.192  -4.228  0.00  0.00    -0.390 OA
ATOM     20  H3O 2UA d   3     -14.551  -5.535  -3.764  0.00  0.00     0.210 HD
ENDBRANCH  10  19
BRANCH  11  21
ATOM     21  O4  2UA d   3     -14.530  -8.020  -6.474  0.00  0.00    -0.390 OA
ATOM     22  H4O 2UA d   3     -14.495  -8.246  -5.543  0.00  0.00     0.210 HD
ENDBRANCH  11  21
BRANCH  12  23
ATOM     23  C6  2UA d   3     -14.445  -6.324  -8.684  0.00  0.00     0.206 C 
ATOM     24  O6A 2UA d   3     -14.415  -5.334  -9.449  0.00  0.00    -0.646 OA
ATOM     25  O6B 2UA d   3     -13.452  -7.088  -8.627  0.00  0.00    -0.646 OA
ENDBRANCH  12  23
ENDBRANCH   7   8
ENDBRANCH   4   7
BRANCH   5  26
ATOM     26  C6  UYS d   2     -18.857  -3.388  -9.975  0.00  0.00     0.227 C 
BRANCH  26  27
ATOM     27  O6  UYS d   2     -18.747  -3.323 -11.362  0.00  0.00    -0.254 OA
BRANCH  27  28
ATOM     28  S1  SO3 d   5     -18.027  -4.358 -12.194  0.00  0.00     0.251 S 
ATOM     29  O1  SO3 d   5     -17.525  -5.396 -11.310  0.00  0.00    -0.572 OA
ATOM     30  O3  SO3 d   5     -18.979  -4.919 -13.122  0.00  0.00    -0.572 OA
ATOM     31  O2  SO3 d   5     -17.011  -3.587 -12.802  0.00  0.00    -0.572 OA
ENDBRANCH  27  28
ENDBRANCH  26  27
ENDBRANCH   5  26
BRANCH   3  32
ATOM     32  O3  UYS d   2     -16.826  -0.951  -5.986  0.00  0.00    -0.391 OA
ATOM     33  H3O UYS d   2     -16.116  -0.412  -5.638  0.00  0.00     0.210 HD
ENDBRANCH   3  32
BRANCH   2  34
ATOM     34  N2  UYS d   2     -15.869   1.136  -7.864  0.00  0.00    -0.289 N 
ATOM     35  H2N UYS d   2     -15.028   0.906  -7.350  0.00  0.00     0.175 HD
BRANCH  34  36
ATOM     36  S1  UYS d   2     -16.173   2.658  -8.233  0.00  0.00     0.205 S 
ATOM     37  O1S UYS d   2     -15.529   3.051  -9.448  0.00  0.00    -0.578 OA
ATOM     38  O3S UYS d   2     -17.632   2.680  -8.420  0.00  0.00    -0.578 OA
ATOM     39  O2S UYS d   2     -15.777   3.556  -7.168  0.00  0.00    -0.578 OA
ENDBRANCH  34  36
ENDBRANCH   2  34
BRANCH   1  40
ATOM     40  O1  ROH d   1     -15.218  -1.096  -9.984  0.00  0.00    -0.369 OA
ATOM     41  HO1 ROH d   1     -14.545  -0.425  -9.846  0.00  0.00     0.212 HD
ENDBRANCH   1  40
TORSDOF 14
ENDMDL
MODEL 3
REMARK VINA RESULT:    -5.180     14.309     17.521
REMARK INTER + INTRA:         -11.404
REMARK INTER:                  -8.846
REMARK INTRA:                  -2.559
REMARK UNBOUND:                -2.590
REMARK  14 active torsions:
REMARK  status: ('A' for Active; 'I' for Inactive)
REMARK    1  A    between atoms: C1_3  and  O1_2 
REMARK    2  A    between atoms: C2_4  and  N2_5 
REMARK    3  A    between atoms: S1_7  and  N2_5 
REMARK    4  A    between atoms: O3_12  and  C3_11 
REMARK    5  A    between atoms: C4_14  and  O4_19 
REMARK    6  A    between atoms: C6_16  and  C5_15 
REMARK    7  A    between atoms: C6_16  and  O6_17 
REMARK    8  A    between atoms: S1_38  and  O6_17 
REMARK    9  A    between atoms: C1_20  and  O4_19 
REMARK   10  A    between atoms: C6_23  and  C5_22 
REMARK   11  A    between atoms: O4_27  and  C4_26 
REMARK   12  A    between atoms: O3_30  and  C3_29 
REMARK   13  A    between atoms: O2_33  and  C2_32 
REMARK   14  A    between atoms: O2_33  and  S1_34 
ROOT
ATOM      1  C1  UYS d   2      -6.938 -12.429 -11.429  0.00  0.00     0.283 C 
ATOM      2  C2  UYS d   2      -5.704 -13.342 -11.094  0.00  0.00     0.181 C 
ATOM      3  C3  UYS d   2      -4.705 -13.115 -12.237  0.00  0.00     0.178 C 
ATOM      4  C4  UYS d   2      -5.407 -13.690 -13.551  0.00  0.00     0.186 C 
ATOM      5  C5  UYS d   2      -6.629 -12.909 -13.902  0.00  0.00     0.181 C 
ATOM      6  O5  UYS d   2      -7.566 -12.886 -12.675  0.00  0.00    -0.349 OA
ENDROOT
BRANCH   4   7
ATOM      7  O4  UYS d   2      -4.528 -13.583 -14.762  0.00  0.00    -0.348 OA
BRANCH   7   8
ATOM      8  C1  2UA d   3      -3.900 -12.159 -15.025  0.00  0.00     0.294 C 
ATOM      9  C2  2UA d   3      -2.418 -12.409 -15.233  0.00  0.00     0.231 C 
ATOM     10  C3  2UA d   3      -1.725 -11.104 -15.748  0.00  0.00     0.185 C 
ATOM     11  C4  2UA d   3      -2.420 -10.499 -16.994  0.00  0.00     0.189 C 
ATOM     12  C5  2UA d   3      -3.948 -10.267 -16.751  0.00  0.00     0.256 C 
ATOM     13  O5  2UA d   3      -4.619 -11.507 -16.151  0.00  0.00    -0.340 OA
BRANCH   9  14
ATOM     14  O2  2UA d   3      -1.808 -12.866 -13.976  0.00  0.00    -0.244 OA
BRANCH  14  15
ATOM     15  S1  SO3 d   4      -0.967 -14.197 -13.979  0.00  0.00     0.252 S 
ATOM     16  O3  SO3 d   4      -0.471 -14.314 -12.627  0.00  0.00    -0.572 OA
ATOM     17  O1  SO3 d   4       0.086 -14.026 -14.973  0.00  0.00    -0.572 OA
ATOM     18  O2  SO3 d   4      -1.905 -15.208 -14.298  0.00  0.00    -0.572 OA
ENDBRANCH  14  15
ENDBRANCH   9  14
BRANCH  10  19
ATOM     19  O3  2UA d   3      -0.316 -11.327 -16.097  0.00  0.00    -0.390 OA
ATOM     20  H3O 2UA d   3      -0.036 -12.155 -15.705  0.00  0.00     0.210 HD
ENDBRANCH  10  19
BRANCH  11  21
ATOM     21  O4  2UA d   3      -1.878  -9.279 -17.528  0.00  0.00    -0.390 OA
ATOM     22  H4O 2UA d   3      -2.129  -9.348 -18.450  0.00  0.00     0.210 HD
ENDBRANCH  11  21
BRANCH  12  23
ATOM     23  C6  2UA d   3      -4.136  -8.950 -15.927  0.00  0.00     0.206 C 
ATOM     24  O6A 2UA d   3      -3.964  -7.876 -16.547  0.00  0.00    -0.646 OA
ATOM     25  O6B 2UA d   3      -4.315  -8.921 -14.685  0.00  0.00    -0.646 OA
ENDBRANCH  12  23
ENDBRANCH   7   8
ENDBRANCH   4   7
BRANCH   5  26
ATOM     26  C6  UYS d   2      -7.447 -13.486 -15.061  0.00  0.00     0.227 C 
BRANCH  26  27
ATOM     27  O6  UYS d   2      -8.775 -13.100 -14.895  0.00  0.00    -0.254 OA
BRANCH  27  28
ATOM     28  S1  SO3 d   5      -9.940 -14.058 -14.963  0.00  0.00     0.251 S 
ATOM     29  O1  SO3 d   5      -9.454 -15.400 -14.685  0.00  0.00    -0.572 OA
ATOM     30  O3  SO3 d   5     -10.897 -13.663 -13.958  0.00  0.00    -0.572 OA
ATOM     31  O2  SO3 d   5     -10.388 -13.879 -16.291  0.00  0.00    -0.572 OA
ENDBRANCH  27  28
ENDBRANCH  26  27
ENDBRANCH   5  26
BRANCH   3  32
ATOM     32  O3  UYS d   2      -3.393 -13.763 -11.985  0.00  0.00    -0.391 OA
ATOM     33  H3O UYS d   2      -3.166 -13.843 -11.059  0.00  0.00     0.210 HD
ENDBRANCH   3  32
BRANCH   2  34
ATOM     34  N2  UYS d   2      -5.164 -12.996  -9.732  0.00  0.00    -0.289 N 
ATOM     35  H2N UYS d   2      -4.414 -12.323  -9.639  0.00  0.00     0.175 HD
BRANCH  34  36
ATOM     36  S1  UYS d   2      -5.780 -13.672  -8.426  0.00  0.00     0.205 S 
ATOM     37  O1S UYS d   2      -6.753 -12.831  -7.798  0.00  0.00    -0.578 OA
ATOM     38  O3S UYS d   2      -6.438 -14.881  -8.944  0.00  0.00    -0.578 OA
ATOM     39  O2S UYS d   2      -4.753 -14.016  -7.465  0.00  0.00    -0.578 OA
ENDBRANCH  34  36
ENDBRANCH   2  34
BRANCH   1  40
ATOM     40  O1  ROH d   1      -6.687 -11.003 -11.633  0.00  0.00    -0.369 OA
ATOM     41  HO1 ROH d   1      -6.638 -10.634 -10.747  0.00  0.00     0.212 HD
ENDBRANCH   1  40
TORSDOF 14
ENDMDL
MODEL 4
REMARK VINA RESULT:    -5.165     14.257     17.768
REMARK INTER + INTRA:         -11.379
REMARK INTER:                  -8.341
REMARK INTRA:                  -3.038
REMARK UNBOUND:                -2.590
REMARK  14 active torsions:
REMARK  status: ('A' for Active; 'I' for Inactive)
REMARK    1  A    between atoms: C1_3  and  O1_2 
REMARK    2  A    between atoms: C2_4  and  N2_5 
REMARK    3  A    between atoms: S1_7  and  N2_5 
REMARK    4  A    between atoms: O3_12  and  C3_11 
REMARK    5  A    between atoms: C4_14  and  O4_19 
REMARK    6  A    between atoms: C6_16  and  C5_15 
REMARK    7  A    between atoms: C6_16  and  O6_17 
REMARK    8  A    between atoms: S1_38  and  O6_17 
REMARK    9  A    between atoms: C1_20  and  O4_19 
REMARK   10  A    between atoms: C6_23  and  C5_22 
REMARK   11  A    between atoms: O4_27  and  C4_26 
REMARK   12  A    between atoms: O3_30  and  C3_29 
REMARK   13  A    between atoms: O2_33  and  C2_32 
REMARK   14  A    between atoms: O2_33  and  S1_34 
ROOT
ATOM      1  C1  UYS d   2      -7.696 -12.353 -12.389  0.00  0.00     0.283 C 
ATOM      2  C2  UYS d   2      -6.500 -13.070 -11.665  0.00  0.00     0.181 C 
ATOM      3  C3  UYS d   2      -5.293 -12.892 -12.595  0.00  0.00     0.178 C 
ATOM      4  C4  UYS d   2      -5.637 -13.714 -13.920  0.00  0.00     0.186 C 
ATOM      5  C5  UYS d   2      -6.808 -13.128 -14.636  0.00  0.00     0.181 C 
ATOM      6  O5  UYS d   2      -7.993 -13.042 -13.651  0.00  0.00    -0.349 OA
ENDROOT
BRANCH   4   7
ATOM      7  O4  UYS d   2      -4.522 -13.677 -14.923  0.00  0.00    -0.348 OA
BRANCH   7   8
ATOM      8  C1  2UA d   3      -3.865 -12.262 -15.160  0.00  0.00     0.294 C 
ATOM      9  C2  2UA d   3      -2.370 -12.516 -15.196  0.00  0.00     0.231 C 
ATOM     10  C3  2UA d   3      -1.621 -11.227 -15.672  0.00  0.00     0.185 C 
ATOM     11  C4  2UA d   3      -2.174 -10.662 -17.005  0.00  0.00     0.189 C 
ATOM     12  C5  2UA d   3      -3.718 -10.424 -16.938  0.00  0.00     0.256 C 
ATOM     13  O5  2UA d   3      -4.455 -11.645 -16.377  0.00  0.00    -0.340 OA
BRANCH   9  14
ATOM     14  O2  2UA d   3      -1.902 -12.934 -13.867  0.00  0.00    -0.244 OA
BRANCH  14  15
ATOM     15  S1  SO3 d   4      -1.153 -14.310 -13.722  0.00  0.00     0.252 S 
ATOM     16  O3  SO3 d   4      -2.210 -15.291 -13.637  0.00  0.00    -0.572 OA
ATOM     17  O1  SO3 d   4      -0.342 -14.222 -12.513  0.00  0.00    -0.572 OA
ATOM     18  O2  SO3 d   4      -0.400 -14.431 -14.916  0.00  0.00    -0.572 OA
ENDBRANCH  14  15
ENDBRANCH   9  14
BRANCH  10  19
ATOM     19  O3  2UA d   3      -0.183 -11.460 -15.858  0.00  0.00    -0.390 OA
ATOM     20  H3O 2UA d   3       0.105 -12.101 -15.207  0.00  0.00     0.210 HD
ENDBRANCH  10  19
BRANCH  11  21
ATOM     21  O4  2UA d   3      -1.574  -9.459 -17.514  0.00  0.00    -0.390 OA
ATOM     22  H4O 2UA d   3      -0.765  -9.799 -17.901  0.00  0.00     0.210 HD
ENDBRANCH  11  21
BRANCH  12  23
ATOM     23  C6  2UA d   3      -3.992  -9.081 -16.180  0.00  0.00     0.206 C 
ATOM     24  O6A 2UA d   3      -3.761  -8.028 -16.815  0.00  0.00    -0.646 OA
ATOM     25  O6B 2UA d   3      -4.297  -9.014 -14.965  0.00  0.00    -0.646 OA
ENDBRANCH  12  23
ENDBRANCH   7   8
ENDBRANCH   4   7
BRANCH   5  26
ATOM     26  C6  UYS d   2      -7.299 -13.945 -15.836  0.00  0.00     0.227 C 
BRANCH  26  27
ATOM     27  O6  UYS d   2      -7.102 -13.190 -16.990  0.00  0.00    -0.254 OA
BRANCH  27  28
ATOM     28  S1  SO3 d   5      -6.708 -13.783 -18.321  0.00  0.00     0.251 S 
ATOM     29  O1  SO3 d   5      -7.791 -14.633 -18.789  0.00  0.00    -0.572 OA
ATOM     30  O3  SO3 d   5      -6.501 -12.696 -19.246  0.00  0.00    -0.572 OA
ATOM     31  O2  SO3 d   5      -5.532 -14.492 -17.987  0.00  0.00    -0.572 OA
ENDBRANCH  27  28
ENDBRANCH  26  27
ENDBRANCH   5  26
BRANCH   3  32
ATOM     32  O3  UYS d   2      -4.023 -13.350 -11.977  0.00  0.00    -0.391 OA
ATOM     33  H3O UYS d   2      -3.303 -12.724 -12.049  0.00  0.00     0.210 HD
ENDBRANCH   3  32
BRANCH   2  34
ATOM     34  N2  UYS d   2      -6.305 -12.484 -10.292  0.00  0.00    -0.289 N 
ATOM     35  H2N UYS d   2      -6.196 -11.485 -10.177  0.00  0.00     0.175 HD
BRANCH  34  36
ATOM     36  S1  UYS d   2      -6.288 -13.429  -9.008  0.00  0.00     0.205 S 
ATOM     37  O1S UYS d   2      -7.478 -14.216  -8.908  0.00  0.00    -0.578 OA
ATOM     38  O3S UYS d   2      -5.135 -14.311  -9.248  0.00  0.00    -0.578 OA
ATOM     39  O2S UYS d   2      -6.110 -12.671  -7.787  0.00  0.00    -0.578 OA
ENDBRANCH  34  36
ENDBRANCH   2  34
BRANCH   1  40
ATOM     40  O1  ROH d   1      -7.519 -10.949 -12.757  0.00  0.00    -0.369 OA
ATOM     41  HO1 ROH d   1      -8.384 -10.551 -12.629  0.00  0.00     0.212 HD
ENDBRANCH   1  40
TORSDOF 14
ENDMDL
MODEL 5
REMARK VINA RESULT:    -5.094     16.863     20.811
REMARK INTER + INTRA:         -11.257
REMARK INTER:                  -8.845
REMARK INTRA:                  -2.412
REMARK UNBOUND:                -2.590
REMARK  14 active torsions:
REMARK  status: ('A' for Active; 'I' for Inactive)
REMARK    1  A    between atoms: C1_3  and  O1_2 
REMARK    2  A    between atoms: C2_4  and  N2_5 
REMARK    3  A    between atoms: S1_7  and  N2_5 
REMARK    4  A    between atoms: O3_12  and  C3_11 
REMARK    5  A    between atoms: C4_14  and  O4_19 
REMARK    6  A    between atoms: C6_16  and  C5_15 
REMARK    7  A    between atoms: C6_16  and  O6_17 
REMARK    8  A    between atoms: S1_38  and  O6_17 
REMARK    9  A    between atoms: C1_20  and  O4_19 
REMARK   10  A    between atoms: C6_23  and  C5_22 
REMARK   11  A    between atoms: O4_27  and  C4_26 
REMARK   12  A    between atoms: O3_30  and  C3_29 
REMARK   13  A    between atoms: O2_33  and  C2_32 
REMARK   14  A    between atoms: O2_33  and  S1_34 
ROOT
ATOM      1  C1  UYS d   2       2.543 -13.873 -16.632  0.00  0.00     0.283 C 
ATOM      2  C2  UYS d   2       2.125 -12.483 -17.236  0.00  0.00     0.181 C 
ATOM      3  C3  UYS d   2       1.104 -11.900 -16.250  0.00  0.00     0.178 C 
ATOM      4  C4  UYS d   2      -0.163 -12.869 -16.307  0.00  0.00     0.186 C 
ATOM      5  C5  UYS d   2       0.172 -14.234 -15.804  0.00  0.00     0.181 C 
ATOM      6  O5  UYS d   2       1.380 -14.768 -16.602  0.00  0.00    -0.349 OA
ENDROOT
BRANCH   4   7
ATOM      7  O4  UYS d   2      -1.280 -12.403 -15.421  0.00  0.00    -0.348 OA
BRANCH   7   8
ATOM      8  C1  2UA d   3      -2.417 -11.575 -16.137  0.00  0.00     0.294 C 
ATOM      9  C2  2UA d   3      -3.005 -10.686 -15.057  0.00  0.00     0.231 C 
ATOM     10  C3  2UA d   3      -3.975  -9.639 -15.698  0.00  0.00     0.185 C 
ATOM     11  C4  2UA d   3      -3.325  -8.839 -16.856  0.00  0.00     0.189 C 
ATOM     12  C5  2UA d   3      -2.719  -9.785 -17.945  0.00  0.00     0.256 C 
ATOM     13  O5  2UA d   3      -1.846 -10.879 -17.320  0.00  0.00    -0.340 OA
BRANCH   9  14
ATOM     14  O2  2UA d   3      -3.704 -11.508 -14.060  0.00  0.00    -0.244 OA
BRANCH  14  15
ATOM     15  S1  SO3 d   4      -3.384 -11.290 -12.535  0.00  0.00     0.252 S 
ATOM     16  O3  SO3 d   4      -2.080 -11.883 -12.350  0.00  0.00    -0.572 OA
ATOM     17  O1  SO3 d   4      -4.440 -11.961 -11.784  0.00  0.00    -0.572 OA
ATOM     18  O2  SO3 d   4      -3.365  -9.884 -12.374  0.00  0.00    -0.572 OA
ENDBRANCH  14  15
ENDBRANCH   9  14
BRANCH  10  19
ATOM     19  O3  2UA d   3      -4.464  -8.665 -14.714  0.00  0.00    -0.390 OA
ATOM     20  H3O 2UA d   3      -3.791  -7.994 -14.593  0.00  0.00     0.210 HD
ENDBRANCH  10  19
BRANCH  11  21
ATOM     21  O4  2UA d   3      -4.144  -7.871 -17.534  0.00  0.00    -0.390 OA
ATOM     22  H4O 2UA d   3      -4.982  -8.334 -17.583  0.00  0.00     0.210 HD
ENDBRANCH  11  21
BRANCH  12  23
ATOM     23  C6  2UA d   3      -3.873 -10.305 -18.865  0.00  0.00     0.206 C 
ATOM     24  O6A 2UA d   3      -5.030 -10.253 -18.390  0.00  0.00    -0.646 OA
ATOM     25  O6B 2UA d   3      -3.686 -10.874 -19.968  0.00  0.00    -0.646 OA
ENDBRANCH  12  23
ENDBRANCH   7   8
ENDBRANCH   4   7
BRANCH   5  26
ATOM     26  C6  UYS d   2      -0.946 -15.269 -15.965  0.00  0.00     0.227 C 
BRANCH  26  27
ATOM     27  O6  UYS d   2      -1.043 -15.996 -14.781  0.00  0.00    -0.254 OA
BRANCH  27  28
ATOM     28  S1  SO3 d   5      -2.035 -15.682 -13.685  0.00  0.00     0.251 S 
ATOM     29  O1  SO3 d   5      -3.066 -14.814 -14.228  0.00  0.00    -0.572 OA
ATOM     30  O3  SO3 d   5      -2.619 -16.927 -13.248  0.00  0.00    -0.572 OA
ATOM     31  O2  SO3 d   5      -1.214 -15.057 -12.720  0.00  0.00    -0.572 OA
ENDBRANCH  27  28
ENDBRANCH  26  27
ENDBRANCH   5  26
BRANCH   3  32
ATOM     32  O3  UYS d   2       0.739 -10.496 -16.570  0.00  0.00    -0.391 OA
ATOM     33  H3O UYS d   2       0.482 -10.356 -17.481  0.00  0.00     0.210 HD
ENDBRANCH   3  32
BRANCH   2  34
ATOM     34  N2  UYS d   2       3.343 -11.622 -17.436  0.00  0.00    -0.289 N 
ATOM     35  H2N UYS d   2       4.004 -11.493 -16.682  0.00  0.00     0.175 HD
BRANCH  34  36
ATOM     36  S1  UYS d   2       3.611 -10.921 -18.844  0.00  0.00     0.205 S 
ATOM     37  O1S UYS d   2       3.893 -11.876 -19.870  0.00  0.00    -0.578 OA
ATOM     38  O3S UYS d   2       2.338 -10.246 -19.138  0.00  0.00    -0.578 OA
ATOM     39  O2S UYS d   2       4.695  -9.964 -18.767  0.00  0.00    -0.578 OA
ENDBRANCH  34  36
ENDBRANCH   2  34
BRANCH   1  40
ATOM     40  O1  ROH d   1       3.066 -13.885 -15.267  0.00  0.00    -0.369 OA
ATOM     41  HO1 ROH d   1       3.548 -14.713 -15.196  0.00  0.00     0.212 HD
ENDBRANCH   1  40
TORSDOF 14
ENDMDL
MODEL 6
REMARK VINA RESULT:    -5.024      2.715      5.970
REMARK INTER + INTRA:         -11.139
REMARK INTER:                  -8.644
REMARK INTRA:                  -2.495
REMARK UNBOUND:                -2.590
REMARK  14 active torsions:
REMARK  status: ('A' for Active; 'I' for Inactive)
REMARK    1  A    between atoms: C1_3  and  O1_2 
REMARK    2  A    between atoms: C2_4  and  N2_5 
REMARK    3  A    between atoms: S1_7  and  N2_5 
REMARK    4  A    between atoms: O3_12  and  C3_11 
REMARK    5  A    between atoms: C4_14  and  O4_19 
REMARK    6  A    between atoms: C6_16  and  C5_15 
REMARK    7  A    between atoms: C6_16  and  O6_17 
REMARK    8  A    between atoms: S1_38  and  O6_17 
REMARK    9  A    between atoms: C1_20  and  O4_19 
REMARK   10  A    between atoms: C6_23  and  C5_22 
REMARK   11  A    between atoms: O4_27  and  C4_26 
REMARK   12  A    between atoms: O3_30  and  C3_29 
REMARK   13  A    between atoms: O2_33  and  C2_32 
REMARK   14  A    between atoms: O2_33  and  S1_34 
ROOT
ATOM      1  C1  UYS d   2     -17.977  -3.344 -12.799  0.00  0.00     0.283 C 
ATOM      2  C2  UYS d   2     -17.810  -4.875 -12.485  0.00  0.00     0.181 C 
ATOM      3  C3  UYS d   2     -18.063  -5.013 -10.978  0.00  0.00     0.178 C 
ATOM      4  C4  UYS d   2     -16.874  -4.225 -10.261  0.00  0.00     0.186 C 
ATOM      5  C5  UYS d   2     -16.929  -2.765 -10.562  0.00  0.00     0.181 C 
ATOM      6  O5  UYS d   2     -16.941  -2.579 -12.094  0.00  0.00    -0.349 OA
ENDROOT
BRANCH   4   7
ATOM      7  O4  UYS d   2     -16.954  -4.306  -8.765  0.00  0.00    -0.348 OA
BRANCH   7   8
ATOM      8  C1  2UA d   3     -15.923  -5.286  -8.079  0.00  0.00     0.294 C 
ATOM      9  C2  2UA d   3     -16.310  -5.309  -6.612  0.00  0.00     0.231 C 
ATOM     10  C3  2UA d   3     -15.517  -6.436  -5.871  0.00  0.00     0.185 C 
ATOM     11  C4  2UA d   3     -15.646  -7.821  -6.556  0.00  0.00     0.189 C 
ATOM     12  C5  2UA d   3     -15.253  -7.758  -8.069  0.00  0.00     0.256 C 
ATOM     13  O5  2UA d   3     -15.946  -6.593  -8.785  0.00  0.00    -0.340 OA
BRANCH   9  14
ATOM     14  O2  2UA d   3     -16.048  -3.997  -6.006  0.00  0.00    -0.244 OA
BRANCH  14  15
ATOM     15  S1  SO3 d   4     -17.187  -3.304  -5.170  0.00  0.00     0.252 S 
ATOM     16  O3  SO3 d   4     -18.388  -3.524  -5.943  0.00  0.00    -0.572 OA
ATOM     17  O1  SO3 d   4     -16.823  -1.897  -5.048  0.00  0.00    -0.572 OA
ATOM     18  O2  SO3 d   4     -17.202  -4.006  -3.941  0.00  0.00    -0.572 OA
ENDBRANCH  14  15
ENDBRANCH   9  14
BRANCH  10  19
ATOM     19  O3  2UA d   3     -15.955  -6.595  -4.478  0.00  0.00    -0.390 OA
ATOM     20  H3O 2UA d   3     -16.851  -6.266  -4.404  0.00  0.00     0.210 HD
ENDBRANCH  10  19
BRANCH  11  21
ATOM     21  O4  2UA d   3     -14.929  -8.920  -5.969  0.00  0.00    -0.390 OA
ATOM     22  H4O 2UA d   3     -14.399  -8.470  -5.309  0.00  0.00     0.210 HD
ENDBRANCH  11  21
BRANCH  12  23
ATOM     23  C6  2UA d   3     -13.692  -7.772  -8.188  0.00  0.00     0.206 C 
ATOM     24  O6A 2UA d   3     -13.162  -6.748  -8.673  0.00  0.00    -0.646 OA
ATOM     25  O6B 2UA d   3     -12.982  -8.779  -7.949  0.00  0.00    -0.646 OA
ENDBRANCH  12  23
ENDBRANCH   7   8
ENDBRANCH   4   7
BRANCH   5  26
ATOM     26  C6  UYS d   2     -15.738  -1.957 -10.037  0.00  0.00     0.227 C 
BRANCH  26  27
ATOM     27  O6  UYS d   2     -16.191  -1.118  -9.021  0.00  0.00    -0.254 OA
BRANCH  27  28
ATOM     28  S1  SO3 d   5     -16.091   0.388  -9.073  0.00  0.00     0.251 S 
ATOM     29  O1  SO3 d   5     -16.088   0.900  -7.713  0.00  0.00    -0.572 OA
ATOM     30  O3  SO3 d   5     -14.852   0.727  -9.731  0.00  0.00    -0.572 OA
ATOM     31  O2  SO3 d   5     -17.249   0.731  -9.807  0.00  0.00    -0.572 OA
ENDBRANCH  27  28
ENDBRANCH  26  27
ENDBRANCH   5  26
BRANCH   3  32
ATOM     32  O3  UYS d   2     -18.129  -6.430 -10.538  0.00  0.00    -0.391 OA
ATOM     33  H3O UYS d   2     -19.010  -6.734 -10.323  0.00  0.00     0.210 HD
ENDBRANCH   3  32
BRANCH   2  34
ATOM     34  N2  UYS d   2     -18.751  -5.680 -13.340  0.00  0.00    -0.289 N 
ATOM     35  H2N UYS d   2     -19.727  -5.424 -13.401  0.00  0.00     0.175 HD
BRANCH  34  36
ATOM     36  S1  UYS d   2     -18.214  -6.933 -14.169  0.00  0.00     0.205 S 
ATOM     37  O1S UYS d   2     -17.259  -6.546 -15.161  0.00  0.00    -0.578 OA
ATOM     38  O3S UYS d   2     -17.554  -7.762 -13.148  0.00  0.00    -0.578 OA
ATOM     39  O2S UYS d   2     -19.296  -7.660 -14.801  0.00  0.00    -0.578 OA
ENDBRANCH  34  36
ENDBRANCH   2  34
BRANCH   1  40
ATOM     40  O1  ROH d   1     -19.239  -2.711 -12.418  0.00  0.00    -0.369 OA
ATOM     41  HO1 ROH d   1     -19.003  -2.095 -11.720  0.00  0.00     0.212 HD
ENDBRANCH   1  40
TORSDOF 14
ENDMDL
MODEL 7
REMARK VINA RESULT:    -4.956     14.815     17.973
REMARK INTER + INTRA:         -11.024
REMARK INTER:                  -7.887
REMARK INTRA:                  -3.136
REMARK UNBOUND:                -2.590
REMARK  14 active torsions:
REMARK  status: ('A' for Active; 'I' for Inactive)
REMARK    1  A    between atoms: C1_3  and  O1_2 
REMARK    2  A    between atoms: C2_4  and  N2_5 
REMARK    3  A    between atoms: S1_7  and  N2_5 
REMARK    4  A    between atoms: O3_12  and  C3_11 
REMARK    5  A    between atoms: C4_14  and  O4_19 
REMARK    6  A    between atoms: C6_16  and  C5_15 
REMARK    7  A    between atoms: C6_16  and  O6_17 
REMARK    8  A    between atoms: S1_38  and  O6_17 
REMARK    9  A    between atoms: C1_20  and  O4_19 
REMARK   10  A    between atoms: C6_23  and  C5_22 
REMARK   11  A    between atoms: O4_27  and  C4_26 
REMARK   12  A    between atoms: O3_30  and  C3_29 
REMARK   13  A    between atoms: O2_33  and  C2_32 
REMARK   14  A    between atoms: O2_33  and  S1_34 
ROOT
ATOM      1  C1  UYS d   2      -3.525 -10.593 -11.774  0.00  0.00     0.283 C 
ATOM      2  C2  UYS d   2      -4.824 -11.465 -11.619  0.00  0.00     0.181 C 
ATOM      3  C3  UYS d   2      -4.896 -12.320 -12.890  0.00  0.00     0.178 C 
ATOM      4  C4  UYS d   2      -5.126 -11.296 -14.093  0.00  0.00     0.186 C 
ATOM      5  C5  UYS d   2      -3.955 -10.388 -14.267  0.00  0.00     0.181 C 
ATOM      6  O5  UYS d   2      -3.674  -9.687 -12.920  0.00  0.00    -0.349 OA
ENDROOT
BRANCH   4   7
ATOM      7  O4  UYS d   2      -5.266 -11.990 -15.416  0.00  0.00    -0.348 OA
BRANCH   7   8
ATOM      8  C1  2UA d   3      -4.227 -13.145 -15.695  0.00  0.00     0.294 C 
ATOM      9  C2  2UA d   3      -5.045 -14.290 -16.262  0.00  0.00     0.231 C 
ATOM     10  C3  2UA d   3      -4.093 -15.405 -16.809  0.00  0.00     0.185 C 
ATOM     11  C4  2UA d   3      -3.033 -14.864 -17.803  0.00  0.00     0.189 C 
ATOM     12  C5  2UA d   3      -2.217 -13.678 -17.191  0.00  0.00     0.256 C 
ATOM     13  O5  2UA d   3      -3.137 -12.625 -16.561  0.00  0.00    -0.340 OA
BRANCH   9  14
ATOM     14  O2  2UA d   3      -5.940 -14.825 -15.227  0.00  0.00    -0.244 OA
BRANCH  14  15
ATOM     15  S1  SO3 d   4      -7.473 -14.975 -15.549  0.00  0.00     0.252 S 
ATOM     16  O3  SO3 d   4      -7.586 -16.272 -16.176  0.00  0.00    -0.572 OA
ATOM     17  O1  SO3 d   4      -7.826 -13.869 -16.433  0.00  0.00    -0.572 OA
ATOM     18  O2  SO3 d   4      -8.107 -14.930 -14.284  0.00  0.00    -0.572 OA
ENDBRANCH  14  15
ENDBRANCH   9  14
BRANCH  10  19
ATOM     19  O3  2UA d   3      -4.830 -16.474 -17.494  0.00  0.00    -0.390 OA
ATOM     20  H3O 2UA d   3      -4.196 -17.072 -17.891  0.00  0.00     0.210 HD
ENDBRANCH  10  19
BRANCH  11  21
ATOM     21  O4  2UA d   3      -2.088 -15.805 -18.340  0.00  0.00    -0.390 OA
ATOM     22  H4O 2UA d   3      -1.297 -15.580 -17.848  0.00  0.00     0.210 HD
ENDBRANCH  11  21
BRANCH  12  23
ATOM     23  C6  2UA d   3      -1.121 -14.255 -16.235  0.00  0.00     0.206 C 
ATOM     24  O6A 2UA d   3      -1.143 -13.847 -15.052  0.00  0.00    -0.646 OA
ATOM     25  O6B 2UA d   3      -0.173 -14.983 -16.617  0.00  0.00    -0.646 OA
ENDBRANCH  12  23
ENDBRANCH   7   8
ENDBRANCH   4   7
BRANCH   5  26
ATOM     26  C6  UYS d   2      -4.155  -9.275 -15.300  0.00  0.00     0.227 C 
BRANCH  26  27
ATOM     27  O6  UYS d   2      -3.141  -9.373 -16.251  0.00  0.00    -0.254 OA
BRANCH  27  28
ATOM     28  S1  SO3 d   5      -3.352  -9.131 -17.727  0.00  0.00     0.251 S 
ATOM     29  O1  SO3 d   5      -3.296  -7.700 -17.975  0.00  0.00    -0.572 OA
ATOM     30  O3  SO3 d   5      -2.289  -9.797 -18.440  0.00  0.00    -0.572 OA
ATOM     31  O2  SO3 d   5      -4.631  -9.695 -17.935  0.00  0.00    -0.572 OA
ENDBRANCH  27  28
ENDBRANCH  26  27
ENDBRANCH   5  26
BRANCH   3  32
ATOM     32  O3  UYS d   2      -5.968 -13.347 -12.828  0.00  0.00    -0.391 OA
ATOM     33  H3O UYS d   2      -5.676 -14.200 -12.507  0.00  0.00     0.210 HD
ENDBRANCH   3  32
BRANCH   2  34
ATOM     34  N2  UYS d   2      -4.754 -12.266 -10.346  0.00  0.00    -0.289 N 
ATOM     35  H2N UYS d   2      -3.858 -12.492  -9.936  0.00  0.00     0.175 HD
BRANCH  34  36
ATOM     36  S1  UYS d   2      -6.092 -12.751  -9.626  0.00  0.00     0.205 S 
ATOM     37  O1S UYS d   2      -6.077 -12.466  -8.224  0.00  0.00    -0.578 OA
ATOM     38  O3S UYS d   2      -7.141 -11.951 -10.278  0.00  0.00    -0.578 OA
ATOM     39  O2S UYS d   2      -6.326 -14.166  -9.825  0.00  0.00    -0.578 OA
ENDBRANCH  34  36
ENDBRANCH   2  34
BRANCH   1  40
ATOM     40  O1  ROH d   1      -2.265 -11.295 -12.008  0.00  0.00    -0.369 OA
ATOM     41  HO1 ROH d   1      -2.303 -11.567 -12.928  0.00  0.00     0.212 HD
ENDBRANCH   1  40
TORSDOF 14
ENDMDL
MODEL 8
REMARK VINA RESULT:    -4.928     15.483     19.380
REMARK INTER + INTRA:         -10.975
REMARK INTER:                  -8.384
REMARK INTRA:                  -2.590
REMARK UNBOUND:                -2.590
REMARK  14 active torsions:
REMARK  status: ('A' for Active; 'I' for Inactive)
REMARK    1  A    between atoms: C1_3  and  O1_2 
REMARK    2  A    between atoms: C2_4  and  N2_5 
REMARK    3  A    between atoms: S1_7  and  N2_5 
REMARK    4  A    between atoms: O3_12  and  C3_11 
REMARK    5  A    between atoms: C4_14  and  O4_19 
REMARK    6  A    between atoms: C6_16  and  C5_15 
REMARK    7  A    between atoms: C6_16  and  O6_17 
REMARK    8  A    between atoms: S1_38  and  O6_17 
REMARK    9  A    between atoms: C1_20  and  O4_19 
REMARK   10  A    between atoms: C6_23  and  C5_22 
REMARK   11  A    between atoms: O4_27  and  C4_26 
REMARK   12  A    between atoms: O3_30  and  C3_29 
REMARK   13  A    between atoms: O2_33  and  C2_32 
REMARK   14  A    between atoms: O2_33  and  S1_34 
ROOT
ATOM      1  C1  UYS d   2      -0.237 -11.125 -17.191  0.00  0.00     0.283 C 
ATOM      2  C2  UYS d   2      -1.675 -10.601 -16.831  0.00  0.00     0.181 C 
ATOM      3  C3  UYS d   2      -1.852 -10.888 -15.335  0.00  0.00     0.178 C 
ATOM      4  C4  UYS d   2      -1.852 -12.478 -15.191  0.00  0.00     0.186 C 
ATOM      5  C5  UYS d   2      -0.533 -13.059 -15.575  0.00  0.00     0.181 C 
ATOM      6  O5  UYS d   2      -0.180 -12.580 -16.999  0.00  0.00    -0.349 OA
ENDROOT
BRANCH   4   7
ATOM      7  O4  UYS d   2      -2.065 -12.925 -13.775  0.00  0.00    -0.348 OA
BRANCH   7   8
ATOM      8  C1  2UA d   3      -3.568 -12.985 -13.298  0.00  0.00     0.294 C 
ATOM      9  C2  2UA d   3      -3.692 -14.288 -12.531  0.00  0.00     0.231 C 
ATOM     10  C3  2UA d   3      -5.072 -14.345 -11.796  0.00  0.00     0.185 C 
ATOM     11  C4  2UA d   3      -5.346 -13.096 -10.920  0.00  0.00     0.189 C 
ATOM     12  C5  2UA d   3      -5.198 -11.771 -11.738  0.00  0.00     0.256 C 
ATOM     13  O5  2UA d   3      -3.893 -11.747 -12.543  0.00  0.00    -0.340 OA
BRANCH   9  14
ATOM     14  O2  2UA d   3      -3.539 -15.425 -13.449  0.00  0.00    -0.244 OA
BRANCH  14  15
ATOM     15  S1  SO3 d   4      -2.589 -16.611 -13.041  0.00  0.00     0.252 S 
ATOM     16  O3  SO3 d   4      -2.306 -17.293 -14.283  0.00  0.00    -0.572 OA
ATOM     17  O1  SO3 d   4      -3.324 -17.428 -12.082  0.00  0.00    -0.572 OA
ATOM     18  O2  SO3 d   4      -1.443 -15.978 -12.502  0.00  0.00    -0.572 OA
ENDBRANCH  14  15
ENDBRANCH   9  14
BRANCH  10  19
ATOM     19  O3  2UA d   3      -5.187 -15.523 -10.927  0.00  0.00    -0.390 OA
ATOM     20  H3O 2UA d   3      -5.231 -15.224 -10.018  0.00  0.00     0.210 HD
ENDBRANCH  10  19
BRANCH  11  21
ATOM     21  O4  2UA d   3      -6.603 -13.036 -10.226  0.00  0.00    -0.390 OA
ATOM     22  H4O 2UA d   3      -6.682 -13.933  -9.898  0.00  0.00     0.210 HD
ENDBRANCH  11  21
BRANCH  12  23
ATOM     23  C6  2UA d   3      -6.498 -11.546 -12.579  0.00  0.00     0.206 C 
ATOM     24  O6A 2UA d   3      -7.486 -11.087 -11.964  0.00  0.00    -0.646 OA
ATOM     25  O6B 2UA d   3      -6.632 -11.914 -13.772  0.00  0.00    -0.646 OA
ENDBRANCH  12  23
ENDBRANCH   7   8
ENDBRANCH   4   7
BRANCH   5  26
ATOM     26  C6  UYS d   2      -0.493 -14.590 -15.612  0.00  0.00     0.227 C 
BRANCH  26  27
ATOM     27  O6  UYS d   2       0.544 -15.022 -14.788  0.00  0.00    -0.254 OA
BRANCH  27  28
ATOM     28  S1  SO3 d   5       1.954 -15.261 -15.274  0.00  0.00     0.251 S 
ATOM     29  O1  SO3 d   5       2.389 -16.568 -14.810  0.00  0.00    -0.572 OA
ATOM     30  O3  SO3 d   5       1.935 -15.231 -16.716  0.00  0.00    -0.572 OA
ATOM     31  O2  SO3 d   5       2.653 -14.186 -14.680  0.00  0.00    -0.572 OA
ENDBRANCH  27  28
ENDBRANCH  26  27
ENDBRANCH   5  26
BRANCH   3  32
ATOM     32  O3  UYS d   2      -3.091 -10.285 -14.781  0.00  0.00    -0.391 OA
ATOM     33  H3O UYS d   2      -3.345 -10.627 -13.924  0.00  0.00     0.210 HD
ENDBRANCH   3  32
BRANCH   2  34
ATOM     34  N2  UYS d   2      -1.796  -9.145 -17.193  0.00  0.00    -0.289 N 
ATOM     35  H2N UYS d   2      -1.054  -8.500 -16.959  0.00  0.00     0.175 HD
BRANCH  34  36
ATOM     36  S1  UYS d   2      -3.086  -8.612 -17.964  0.00  0.00     0.205 S 
ATOM     37  O1S UYS d   2      -3.649  -9.611 -18.819  0.00  0.00    -0.578 OA
ATOM     38  O3S UYS d   2      -4.031  -8.305 -16.879  0.00  0.00    -0.578 OA
ATOM     39  O2S UYS d   2      -2.793  -7.425 -18.742  0.00  0.00    -0.578 OA
ENDBRANCH  34  36
ENDBRANCH   2  34
BRANCH   1  40
ATOM     40  O1  ROH d   1       0.886 -10.597 -16.418  0.00  0.00    -0.369 OA
ATOM     41  HO1 ROH d   1       1.636 -11.140 -16.675  0.00  0.00     0.212 HD
ENDBRANCH   1  40
TORSDOF 14
ENDMDL
MODEL 9
REMARK VINA RESULT:    -4.915     14.973     17.901
REMARK INTER + INTRA:         -10.953
REMARK INTER:                  -8.322
REMARK INTRA:                  -2.631
REMARK UNBOUND:                -2.590
REMARK  14 active torsions:
REMARK  status: ('A' for Active; 'I' for Inactive)
REMARK    1  A    between atoms: C1_3  and  O1_2 
REMARK    2  A    between atoms: C2_4  and  N2_5 
REMARK    3  A    between atoms: S1_7  and  N2_5 
REMARK    4  A    between atoms: O3_12  and  C3_11 
REMARK    5  A    between atoms: C4_14  and  O4_19 
REMARK    6  A    between atoms: C6_16  and  C5_15 
REMARK    7  A    between atoms: C6_16  and  O6_17 
REMARK    8  A    between atoms: S1_38  and  O6_17 
REMARK    9  A    between atoms: C1_20  and  O4_19 
REMARK   10  A    between atoms: C6_23  and  C5_22 
REMARK   11  A    between atoms: O4_27  and  C4_26 
REMARK   12  A    between atoms: O3_30  and  C3_29 
REMARK   13  A    between atoms: O2_33  and  C2_32 
REMARK   14  A    between atoms: O2_33  and  S1_34 
ROOT
ATOM      1  C1  UYS d   2      -2.375 -11.210 -14.277  0.00  0.00     0.283 C 
ATOM      2  C2  UYS d   2      -3.533 -11.435 -15.316  0.00  0.00     0.181 C 
ATOM      3  C3  UYS d   2      -4.607 -12.232 -14.565  0.00  0.00     0.178 C 
ATOM      4  C4  UYS d   2      -3.950 -13.650 -14.238  0.00  0.00     0.186 C 
ATOM      5  C5  UYS d   2      -2.798 -13.514 -13.299  0.00  0.00     0.181 C 
ATOM      6  O5  UYS d   2      -1.795 -12.504 -13.898  0.00  0.00    -0.349 OA
ENDROOT
BRANCH   4   7
ATOM      7  O4  UYS d   2      -4.902 -14.574 -13.537  0.00  0.00    -0.348 OA
BRANCH   7   8
ATOM      8  C1  2UA d   3      -5.672 -13.955 -12.306  0.00  0.00     0.294 C 
ATOM      9  C2  2UA d   3      -7.109 -14.414 -12.462  0.00  0.00     0.231 C 
ATOM     10  C3  2UA d   3      -7.921 -14.070 -11.169  0.00  0.00     0.185 C 
ATOM     11  C4  2UA d   3      -7.253 -14.597  -9.874  0.00  0.00     0.189 C 
ATOM     12  C5  2UA d   3      -5.769 -14.116  -9.751  0.00  0.00     0.256 C 
ATOM     13  O5  2UA d   3      -4.988 -14.356 -11.048  0.00  0.00    -0.340 OA
BRANCH   9  14
ATOM     14  O2  2UA d   3      -7.710 -13.779 -13.643  0.00  0.00    -0.244 OA
BRANCH  14  15
ATOM     15  S1  SO3 d   4      -8.467 -14.681 -14.688  0.00  0.00     0.252 S 
ATOM     16  O3  SO3 d   4      -9.620 -13.898 -15.072  0.00  0.00    -0.572 OA
ATOM     17  O1  SO3 d   4      -8.809 -15.922 -14.002  0.00  0.00    -0.572 OA
ATOM     18  O2  SO3 d   4      -7.546 -14.841 -15.751  0.00  0.00    -0.572 OA
ENDBRANCH  14  15
ENDBRANCH   9  14
BRANCH  10  19
ATOM     19  O3  2UA d   3      -9.284 -14.615 -11.211  0.00  0.00    -0.390 OA
ATOM     20  H3O 2UA d   3      -9.722 -14.396 -10.388  0.00  0.00     0.210 HD
ENDBRANCH  10  19
BRANCH  11  21
ATOM     21  O4  2UA d   3      -7.904 -14.306  -8.626  0.00  0.00    -0.390 OA
ATOM     22  H4O 2UA d   3      -8.827 -14.386  -8.871  0.00  0.00     0.210 HD
ENDBRANCH  11  21
BRANCH  12  23
ATOM     23  C6  2UA d   3      -5.755 -12.639  -9.234  0.00  0.00     0.206 C 
ATOM     24  O6A 2UA d   3      -5.948 -12.477  -8.009  0.00  0.00    -0.646 OA
ATOM     25  O6B 2UA d   3      -5.691 -11.636  -9.986  0.00  0.00    -0.646 OA
ENDBRANCH  12  23
ENDBRANCH   7   8
ENDBRANCH   4   7
BRANCH   5  26
ATOM     26  C6  UYS d   2      -2.016 -14.807 -13.052  0.00  0.00     0.227 C 
BRANCH  26  27
ATOM     27  O6  UYS d   2      -0.720 -14.469 -12.669  0.00  0.00    -0.254 OA
BRANCH  27  28
ATOM     28  S1  SO3 d   5       0.494 -15.307 -12.993  0.00  0.00     0.251 S 
ATOM     29  O1  SO3 d   5       1.365 -15.332 -11.830  0.00  0.00    -0.572 OA
ATOM     30  O3  SO3 d   5       0.041 -16.642 -13.299  0.00  0.00    -0.572 OA
ATOM     31  O2  SO3 d   5       1.040 -14.613 -14.097  0.00  0.00    -0.572 OA
ENDBRANCH  27  28
ENDBRANCH  26  27
ENDBRANCH   5  26
BRANCH   3  32
ATOM     32  O3  UYS d   2      -5.863 -12.374 -15.345  0.00  0.00    -0.391 OA
ATOM     33  H3O UYS d   2      -6.530 -12.913 -14.920  0.00  0.00     0.210 HD
ENDBRANCH   3  32
BRANCH   2  34
ATOM     34  N2  UYS d   2      -4.013 -10.109 -15.844  0.00  0.00    -0.289 N 
ATOM     35  H2N UYS d   2      -4.476  -9.454 -15.228  0.00  0.00     0.175 HD
BRANCH  34  36
ATOM     36  S1  UYS d   2      -3.781  -9.720 -17.373  0.00  0.00     0.205 S 
ATOM     37  O1S UYS d   2      -3.705  -8.304 -17.557  0.00  0.00    -0.578 OA
ATOM     38  O3S UYS d   2      -2.478 -10.327 -17.687  0.00  0.00    -0.578 OA
ATOM     39  O2S UYS d   2      -4.819 -10.260 -18.227  0.00  0.00    -0.578 OA
ENDBRANCH  34  36
ENDBRANCH   2  34
BRANCH   1  40
ATOM     40  O1  ROH d   1      -2.720 -10.565 -13.011  0.00  0.00    -0.369 OA
ATOM     41  HO1 ROH d   1      -2.986  -9.674 -13.255  0.00  0.00     0.212 HD
ENDBRANCH   1  40
TORSDOF 14
ENDMDL
