MODEL 1
REMARK VINA RESULT:    -6.283      0.000      0.000
REMARK INTER + INTRA:         -13.514
REMARK INTER:                 -11.312
REMARK INTRA:                  -2.202
REMARK UNBOUND:                -2.824
REMARK  14 active torsions:
REMARK  status: ('A' for Active; 'I' for Inactive)
REMARK    1  A    between atoms: C1_3  and  O1_2 
REMARK    2  A    between atoms: C2_4  and  N2_5 
REMARK    3  A    between atoms: S1_7  and  N2_5 
REMARK    4  A    between atoms: O3_12  and  C3_11 
REMARK    5  A    between atoms: C4_14  and  O4_19 
REMARK    6  A    between atoms: C6_16  and  C5_15 
REMARK    7  A    between atoms: C6_16  and  O6_17 
REMARK    8  A    between atoms: S1_38  and  O6_17 
REMARK    9  A    between atoms: C1_20  and  O4_19 
REMARK   10  A    between atoms: C6_23  and  C5_22 
REMARK   11  A    between atoms: O4_27  and  C4_26 
REMARK   12  A    between atoms: O3_30  and  C3_29 
REMARK   13  A    between atoms: O2_33  and  C2_32 
REMARK   14  A    between atoms: O2_33  and  S1_34 
ROOT
ATOM      1  C1  UYS d   2     -12.669  -0.076  -0.679  0.00  0.00     0.283 C 
ATOM      2  C2  UYS d   2     -11.636  -1.260  -0.735  0.00  0.00     0.181 C 
ATOM      3  C3  UYS d   2     -12.007  -2.180   0.435  0.00  0.00     0.178 C 
ATOM      4  C4  UYS d   2     -11.725  -1.337   1.761  0.00  0.00     0.186 C 
ATOM      5  C5  UYS d   2     -12.630  -0.154   1.857  0.00  0.00     0.181 C 
ATOM      6  O5  UYS d   2     -12.486   0.680   0.566  0.00  0.00    -0.349 OA
ENDROOT
BRANCH   4   7
ATOM      7  O4  UYS d   2     -11.998  -2.124   3.009  0.00  0.00    -0.348 OA
BRANCH   7   8
ATOM      8  C1  2UA d   3     -10.721  -2.624   3.792  0.00  0.00     0.294 C 
ATOM      9  C2  2UA d   3     -11.146  -2.689   5.247  0.00  0.00     0.231 C 
ATOM     10  C3  2UA d   3     -10.042  -3.408   6.092  0.00  0.00     0.185 C 
ATOM     11  C4  2UA d   3      -9.638  -4.788   5.514  0.00  0.00     0.189 C 
ATOM     12  C5  2UA d   3      -9.219  -4.686   4.010  0.00  0.00     0.256 C 
ATOM     13  O5  2UA d   3     -10.244  -3.896   3.190  0.00  0.00    -0.340 OA
BRANCH   9  14
ATOM     14  O2  2UA d   3     -11.397  -1.334   5.755  0.00  0.00    -0.244 OA
BRANCH  14  15
ATOM     15  S1  SO3 d   4     -12.752  -1.038   6.498  0.00  0.00     0.252 S 
ATOM     16  O3  SO3 d   4     -12.547  -1.538   7.838  0.00  0.00    -0.572 OA
ATOM     17  O1  SO3 d   4     -13.796  -1.748   5.766  0.00  0.00    -0.572 OA
ATOM     18  O2  SO3 d   4     -12.877   0.371   6.462  0.00  0.00    -0.572 OA
ENDBRANCH  14  15
ENDBRANCH   9  14
BRANCH  10  19
ATOM     19  O3  2UA d   3     -10.463  -3.622   7.482  0.00  0.00    -0.390 OA
ATOM     20  H3O 2UA d   3     -10.344  -4.548   7.694  0.00  0.00     0.210 HD
ENDBRANCH  10  19
BRANCH  11  21
ATOM     21  O4  2UA d   3      -8.607  -5.517   6.201  0.00  0.00    -0.390 OA
ATOM     22  H4O 2UA d   3      -9.118  -6.004   6.849  0.00  0.00     0.210 HD
ENDBRANCH  11  21
BRANCH  12  23
ATOM     23  C6  2UA d   3      -7.751  -4.150   3.928  0.00  0.00     0.206 C 
ATOM     24  O6A 2UA d   3      -7.171  -4.282   2.827  0.00  0.00    -0.646 OA
ATOM     25  O6B 2UA d   3      -7.105  -3.726   4.917  0.00  0.00    -0.646 OA
ENDBRANCH  12  23
ENDBRANCH   7   8
ENDBRANCH   4   7
BRANCH   5  26
ATOM     26  C6  UYS d   2     -12.325   0.793   3.021  0.00  0.00     0.227 C 
BRANCH  26  27
ATOM     27  O6  UYS d   2     -11.105   1.417   2.770  0.00  0.00    -0.254 OA
BRANCH  27  28
ATOM     28  S1  SO3 d   5     -10.887   2.907   2.886  0.00  0.00     0.251 S 
ATOM     29  O1  SO3 d   5      -9.654   3.141   3.618  0.00  0.00    -0.572 OA
ATOM     30  O3  SO3 d   5     -10.777   3.442   1.550  0.00  0.00    -0.572 OA
ATOM     31  O2  SO3 d   5     -12.048   3.318   3.580  0.00  0.00    -0.572 OA
ENDBRANCH  27  28
ENDBRANCH  26  27
ENDBRANCH   5  26
BRANCH   3  32
ATOM     32  O3  UYS d   2     -11.245  -3.455   0.421  0.00  0.00    -0.391 OA
ATOM     33  H3O UYS d   2     -10.453  -3.445   0.958  0.00  0.00     0.210 HD
ENDBRANCH   3  32
BRANCH   2  34
ATOM     34  N2  UYS d   2     -11.695  -1.929  -2.082  0.00  0.00    -0.289 N 
ATOM     35  H2N UYS d   2     -11.977  -2.897  -2.157  0.00  0.00     0.175 HD
BRANCH  34  36
ATOM     36  S1  UYS d   2     -11.331  -1.113  -3.403  0.00  0.00     0.205 S 
ATOM     37  O1S UYS d   2     -10.343  -1.785  -4.190  0.00  0.00    -0.578 OA
ATOM     38  O3S UYS d   2     -12.603  -1.072  -4.142  0.00  0.00    -0.578 OA
ATOM     39  O2S UYS d   2     -10.871   0.226  -3.096  0.00  0.00    -0.578 OA
ENDBRANCH  34  36
ENDBRANCH   2  34
BRANCH   1  40
ATOM     40  O1  ROH d   1     -14.090  -0.418  -0.709  0.00  0.00    -0.369 OA
ATOM     41  HO1 ROH d   1     -14.128  -1.265  -1.161  0.00  0.00     0.212 HD
ENDBRANCH   1  40
TORSDOF 14
ENDMDL
MODEL 2
REMARK VINA RESULT:    -6.216      2.729      7.631
REMARK INTER + INTRA:         -13.401
REMARK INTER:                 -10.856
REMARK INTRA:                  -2.545
REMARK UNBOUND:                -2.824
REMARK  14 active torsions:
REMARK  status: ('A' for Active; 'I' for Inactive)
REMARK    1  A    between atoms: C1_3  and  O1_2 
REMARK    2  A    between atoms: C2_4  and  N2_5 
REMARK    3  A    between atoms: S1_7  and  N2_5 
REMARK    4  A    between atoms: O3_12  and  C3_11 
REMARK    5  A    between atoms: C4_14  and  O4_19 
REMARK    6  A    between atoms: C6_16  and  C5_15 
REMARK    7  A    between atoms: C6_16  and  O6_17 
REMARK    8  A    between atoms: S1_38  and  O6_17 
REMARK    9  A    between atoms: C1_20  and  O4_19 
REMARK   10  A    between atoms: C6_23  and  C5_22 
REMARK   11  A    between atoms: O4_27  and  C4_26 
REMARK   12  A    between atoms: O3_30  and  C3_29 
REMARK   13  A    between atoms: O2_33  and  C2_32 
REMARK   14  A    between atoms: O2_33  and  S1_34 
ROOT
ATOM      1  C1  UYS d   2     -11.651  -3.015   0.793  0.00  0.00     0.283 C 
ATOM      2  C2  UYS d   2     -11.157  -2.411   2.158  0.00  0.00     0.181 C 
ATOM      3  C3  UYS d   2     -12.002  -1.149   2.376  0.00  0.00     0.178 C 
ATOM      4  C4  UYS d   2     -11.591  -0.141   1.208  0.00  0.00     0.186 C 
ATOM      5  C5  UYS d   2     -11.974  -0.674  -0.132  0.00  0.00     0.181 C 
ATOM      6  O5  UYS d   2     -11.353  -2.078  -0.297  0.00  0.00    -0.349 OA
ENDROOT
BRANCH   4   7
ATOM      7  O4  UYS d   2     -12.305   1.175   1.310  0.00  0.00    -0.348 OA
BRANCH   7   8
ATOM      8  C1  2UA d   3     -11.420   2.397   1.770  0.00  0.00     0.294 C 
ATOM      9  C2  2UA d   3     -12.026   3.609   1.088  0.00  0.00     0.231 C 
ATOM     10  C3  2UA d   3     -11.388   4.918   1.661  0.00  0.00     0.185 C 
ATOM     11  C4  2UA d   3     -11.451   4.997   3.207  0.00  0.00     0.189 C 
ATOM     12  C5  2UA d   3     -10.829   3.728   3.878  0.00  0.00     0.256 C 
ATOM     13  O5  2UA d   3     -11.372   2.437   3.255  0.00  0.00    -0.340 OA
BRANCH   9  14
ATOM     14  O2  2UA d   3     -11.823   3.518  -0.364  0.00  0.00    -0.244 OA
BRANCH  14  15
ATOM     15  S1  SO3 d   4     -12.916   4.117  -1.325  0.00  0.00     0.252 S 
ATOM     16  O3  SO3 d   4     -12.286   5.279  -1.910  0.00  0.00    -0.572 OA
ATOM     17  O1  SO3 d   4     -14.073   4.438  -0.496  0.00  0.00    -0.572 OA
ATOM     18  O2  SO3 d   4     -13.151   3.095  -2.276  0.00  0.00    -0.572 OA
ENDBRANCH  14  15
ENDBRANCH   9  14
BRANCH  10  19
ATOM     19  O3  2UA d   3     -12.037   6.125   1.134  0.00  0.00    -0.390 OA
ATOM     20  H3O 2UA d   3     -11.900   6.153   0.187  0.00  0.00     0.210 HD
ENDBRANCH  10  19
BRANCH  11  21
ATOM     21  O4  2UA d   3     -10.862   6.149   3.836  0.00  0.00    -0.390 OA
ATOM     22  H4O 2UA d   3     -11.627   6.549   4.252  0.00  0.00     0.210 HD
ENDBRANCH  11  21
BRANCH  12  23
ATOM     23  C6  2UA d   3      -9.270   3.861   3.869  0.00  0.00     0.206 C 
ATOM     24  O6A 2UA d   3      -8.660   3.330   4.824  0.00  0.00    -0.646 OA
ATOM     25  O6B 2UA d   3      -8.633   4.564   3.047  0.00  0.00    -0.646 OA
ENDBRANCH  12  23
ENDBRANCH   7   8
ENDBRANCH   4   7
BRANCH   5  26
ATOM     26  C6  UYS d   2     -11.480   0.160  -1.318  0.00  0.00     0.227 C 
BRANCH  26  27
ATOM     27  O6  UYS d   2     -10.864  -0.695  -2.229  0.00  0.00    -0.254 OA
BRANCH  27  28
ATOM     28  S1  SO3 d   5     -11.376  -0.935  -3.629  0.00  0.00     0.251 S 
ATOM     29  O1  SO3 d   5     -11.715   0.346  -4.225  0.00  0.00    -0.572 OA
ATOM     30  O3  SO3 d   5     -10.319  -1.566  -4.384  0.00  0.00    -0.572 OA
ATOM     31  O2  SO3 d   5     -12.493  -1.767  -3.392  0.00  0.00    -0.572 OA
ENDBRANCH  27  28
ENDBRANCH  26  27
ENDBRANCH   5  26
BRANCH   3  32
ATOM     32  O3  UYS d   2     -11.797  -0.550   3.719  0.00  0.00    -0.391 OA
ATOM     33  H3O UYS d   2     -12.316   0.238   3.881  0.00  0.00     0.210 HD
ENDBRANCH   3  32
BRANCH   2  34
ATOM     34  N2  UYS d   2     -11.295  -3.436   3.252  0.00  0.00    -0.289 N 
ATOM     35  H2N UYS d   2     -12.128  -4.006   3.313  0.00  0.00     0.175 HD
BRANCH  34  36
ATOM     36  S1  UYS d   2     -10.122  -3.643   4.313  0.00  0.00     0.205 S 
ATOM     37  O1S UYS d   2      -8.834  -3.400   3.740  0.00  0.00    -0.578 OA
ATOM     38  O3S UYS d   2     -10.403  -2.625   5.338  0.00  0.00    -0.578 OA
ATOM     39  O2S UYS d   2     -10.149  -4.972   4.888  0.00  0.00    -0.578 OA
ENDBRANCH  34  36
ENDBRANCH   2  34
BRANCH   1  40
ATOM     40  O1  ROH d   1     -13.077  -3.308   0.662  0.00  0.00    -0.369 OA
ATOM     41  HO1 ROH d   1     -13.347  -2.857  -0.142  0.00  0.00     0.212 HD
ENDBRANCH   1  40
TORSDOF 14
ENDMDL
MODEL 3
REMARK VINA RESULT:    -6.204     20.210     22.811
REMARK INTER + INTRA:         -13.380
REMARK INTER:                 -10.911
REMARK INTRA:                  -2.468
REMARK UNBOUND:                -2.824
REMARK  14 active torsions:
REMARK  status: ('A' for Active; 'I' for Inactive)
REMARK    1  A    between atoms: C1_3  and  O1_2 
REMARK    2  A    between atoms: C2_4  and  N2_5 
REMARK    3  A    between atoms: S1_7  and  N2_5 
REMARK    4  A    between atoms: O3_12  and  C3_11 
REMARK    5  A    between atoms: C4_14  and  O4_19 
REMARK    6  A    between atoms: C6_16  and  C5_15 
REMARK    7  A    between atoms: C6_16  and  O6_17 
REMARK    8  A    between atoms: S1_38  and  O6_17 
REMARK    9  A    between atoms: C1_20  and  O4_19 
REMARK   10  A    between atoms: C6_23  and  C5_22 
REMARK   11  A    between atoms: O4_27  and  C4_26 
REMARK   12  A    between atoms: O3_30  and  C3_29 
REMARK   13  A    between atoms: O2_33  and  C2_32 
REMARK   14  A    between atoms: O2_33  and  S1_34 
ROOT
ATOM      1  C1  UYS d   2       5.798  11.298   8.191  0.00  0.00     0.283 C 
ATOM      2  C2  UYS d   2       7.312  11.088   8.556  0.00  0.00     0.181 C 
ATOM      3  C3  UYS d   2       7.465   9.583   8.812  0.00  0.00     0.178 C 
ATOM      4  C4  UYS d   2       6.592   9.269  10.112  0.00  0.00     0.186 C 
ATOM      5  C5  UYS d   2       5.140   9.505   9.862  0.00  0.00     0.181 C 
ATOM      6  O5  UYS d   2       4.959  10.948   9.344  0.00  0.00    -0.349 OA
ENDROOT
BRANCH   4   7
ATOM      7  O4  UYS d   2       6.676   7.830  10.525  0.00  0.00    -0.348 OA
BRANCH   7   8
ATOM      8  C1  2UA d   3       7.195   7.571  11.993  0.00  0.00     0.294 C 
ATOM      9  C2  2UA d   3       8.199   6.440  11.868  0.00  0.00     0.231 C 
ATOM     10  C3  2UA d   3       8.967   6.258  13.219  0.00  0.00     0.185 C 
ATOM     11  C4  2UA d   3       9.596   7.574  13.742  0.00  0.00     0.189 C 
ATOM     12  C5  2UA d   3       8.537   8.721  13.846  0.00  0.00     0.256 C 
ATOM     13  O5  2UA d   3       7.708   8.844  12.563  0.00  0.00    -0.340 OA
BRANCH   9  14
ATOM     14  O2  2UA d   3       7.510   5.200  11.485  0.00  0.00    -0.244 OA
BRANCH  14  15
ATOM     15  S1  SO3 d   4       8.070   4.361  10.277  0.00  0.00     0.252 S 
ATOM     16  O3  SO3 d   4       7.080   4.518   9.236  0.00  0.00    -0.572 OA
ATOM     17  O1  SO3 d   4       8.206   2.987  10.748  0.00  0.00    -0.572 OA
ATOM     18  O2  SO3 d   4       9.298   4.985   9.951  0.00  0.00    -0.572 OA
ENDBRANCH  14  15
ENDBRANCH   9  14
BRANCH  10  19
ATOM     19  O3  2UA d   3      10.047   5.269  13.112  0.00  0.00    -0.390 OA
ATOM     20  H3O 2UA d   3      10.687   5.589  12.475  0.00  0.00     0.210 HD
ENDBRANCH  10  19
BRANCH  11  21
ATOM     21  O4  2UA d   3      10.298   7.521  14.995  0.00  0.00    -0.390 OA
ATOM     22  H4O 2UA d   3      10.522   8.443  15.127  0.00  0.00     0.210 HD
ENDBRANCH  11  21
BRANCH  12  23
ATOM     23  C6  2UA d   3       7.703   8.524  15.156  0.00  0.00     0.206 C 
ATOM     24  O6A 2UA d   3       8.204   8.977  16.209  0.00  0.00    -0.646 OA
ATOM     25  O6B 2UA d   3       6.652   7.840  15.219  0.00  0.00    -0.646 OA
ENDBRANCH  12  23
ENDBRANCH   7   8
ENDBRANCH   4   7
BRANCH   5  26
ATOM     26  C6  UYS d   2       4.247   9.375  11.100  0.00  0.00     0.227 C 
BRANCH  26  27
ATOM     27  O6  UYS d   2       3.002   8.900  10.694  0.00  0.00    -0.254 OA
BRANCH  27  28
ATOM     28  S1  SO3 d   5       2.524   7.488  10.936  0.00  0.00     0.251 S 
ATOM     29  O1  SO3 d   5       1.157   7.539  11.425  0.00  0.00    -0.572 OA
ATOM     30  O3  SO3 d   5       2.573   6.784   9.678  0.00  0.00    -0.572 OA
ATOM     31  O2  SO3 d   5       3.455   7.027  11.894  0.00  0.00    -0.572 OA
ENDBRANCH  27  28
ENDBRANCH  26  27
ENDBRANCH   5  26
BRANCH   3  32
ATOM     32  O3  UYS d   2       8.883   9.175   8.990  0.00  0.00    -0.391 OA
ATOM     33  H3O UYS d   2       9.012   8.231   9.071  0.00  0.00     0.210 HD
ENDBRANCH   3  32
BRANCH   2  34
ATOM     34  N2  UYS d   2       8.185  11.611   7.447  0.00  0.00    -0.289 N 
ATOM     35  H2N UYS d   2       7.891  11.522   6.483  0.00  0.00     0.175 HD
BRANCH  34  36
ATOM     36  S1  UYS d   2       9.572  12.324   7.782  0.00  0.00     0.205 S 
ATOM     37  O1S UYS d   2      10.574  12.030   6.804  0.00  0.00    -0.578 OA
ATOM     38  O3S UYS d   2       9.241  13.756   7.731  0.00  0.00    -0.578 OA
ATOM     39  O2S UYS d   2      10.060  11.956   9.095  0.00  0.00    -0.578 OA
ENDBRANCH  34  36
ENDBRANCH   2  34
BRANCH   1  40
ATOM     40  O1  ROH d   1       5.257  10.517   7.079  0.00  0.00    -0.369 OA
ATOM     41  HO1 ROH d   1       4.390  10.232   7.378  0.00  0.00     0.212 HD
ENDBRANCH   1  40
TORSDOF 14
ENDMDL
MODEL 4
REMARK VINA RESULT:    -6.113     20.168     22.790
REMARK INTER + INTRA:         -13.225
REMARK INTER:                 -10.672
REMARK INTRA:                  -2.554
REMARK UNBOUND:                -2.824
REMARK  14 active torsions:
REMARK  status: ('A' for Active; 'I' for Inactive)
REMARK    1  A    between atoms: C1_3  and  O1_2 
REMARK    2  A    between atoms: C2_4  and  N2_5 
REMARK    3  A    between atoms: S1_7  and  N2_5 
REMARK    4  A    between atoms: O3_12  and  C3_11 
REMARK    5  A    between atoms: C4_14  and  O4_19 
REMARK    6  A    between atoms: C6_16  and  C5_15 
REMARK    7  A    between atoms: C6_16  and  O6_17 
REMARK    8  A    between atoms: S1_38  and  O6_17 
REMARK    9  A    between atoms: C1_20  and  O4_19 
REMARK   10  A    between atoms: C6_23  and  C5_22 
REMARK   11  A    between atoms: O4_27  and  C4_26 
REMARK   12  A    between atoms: O3_30  and  C3_29 
REMARK   13  A    between atoms: O2_33  and  C2_32 
REMARK   14  A    between atoms: O2_33  and  S1_34 
ROOT
ATOM      1  C1  UYS d   2       4.848  10.504  10.220  0.00  0.00     0.283 C 
ATOM      2  C2  UYS d   2       4.511   8.971  10.131  0.00  0.00     0.181 C 
ATOM      3  C3  UYS d   2       5.729   8.251  10.723  0.00  0.00     0.178 C 
ATOM      4  C4  UYS d   2       6.942   8.553   9.730  0.00  0.00     0.186 C 
ATOM      5  C5  UYS d   2       7.283  10.005   9.712  0.00  0.00     0.181 C 
ATOM      6  O5  UYS d   2       6.008  10.805   9.372  0.00  0.00    -0.349 OA
ENDROOT
BRANCH   4   7
ATOM      7  O4  UYS d   2       8.211   7.871  10.151  0.00  0.00    -0.348 OA
BRANCH   7   8
ATOM      8  C1  2UA d   3       8.423   7.727  11.708  0.00  0.00     0.294 C 
ATOM      9  C2  2UA d   3       8.958   6.322  11.910  0.00  0.00     0.231 C 
ATOM     10  C3  2UA d   3       9.442   6.143  13.387  0.00  0.00     0.185 C 
ATOM     11  C4  2UA d   3      10.437   7.242  13.837  0.00  0.00     0.189 C 
ATOM     12  C5  2UA d   3       9.860   8.678  13.604  0.00  0.00     0.256 C 
ATOM     13  O5  2UA d   3       9.290   8.834  12.189  0.00  0.00    -0.340 OA
BRANCH   9  14
ATOM     14  O2  2UA d   3       7.918   5.339  11.576  0.00  0.00    -0.244 OA
BRANCH  14  15
ATOM     15  S1  SO3 d   4       8.096   4.449  10.290  0.00  0.00     0.252 S 
ATOM     16  O3  SO3 d   4       8.179   3.098  10.794  0.00  0.00    -0.572 OA
ATOM     17  O1  SO3 d   4       9.318   4.901   9.633  0.00  0.00    -0.572 OA
ATOM     18  O2  SO3 d   4       6.918   4.673   9.538  0.00  0.00    -0.572 OA
ENDBRANCH  14  15
ENDBRANCH   9  14
BRANCH  10  19
ATOM     19  O3  2UA d   3      10.096   4.846  13.601  0.00  0.00    -0.390 OA
ATOM     20  H3O 2UA d   3      10.823   4.769  12.983  0.00  0.00     0.210 HD
ENDBRANCH  10  19
BRANCH  11  21
ATOM     21  O4  2UA d   3      10.919   7.187  15.190  0.00  0.00    -0.390 OA
ATOM     22  H4O 2UA d   3      11.755   7.648  15.113  0.00  0.00     0.210 HD
ENDBRANCH  11  21
BRANCH  12  23
ATOM     23  C6  2UA d   3       8.862   9.017  14.760  0.00  0.00     0.206 C 
ATOM     24  O6A 2UA d   3       9.370   9.331  15.860  0.00  0.00    -0.646 OA
ATOM     25  O6B 2UA d   3       7.618   8.869  14.677  0.00  0.00    -0.646 OA
ENDBRANCH  12  23
ENDBRANCH   7   8
ENDBRANCH   4   7
BRANCH   5  26
ATOM     26  C6  UYS d   2       8.335  10.404   8.672  0.00  0.00     0.227 C 
BRANCH  26  27
ATOM     27  O6  UYS d   2       7.696  11.098   7.647  0.00  0.00    -0.254 OA
BRANCH  27  28
ATOM     28  S1  SO3 d   5       8.130  12.459   7.160  0.00  0.00     0.251 S 
ATOM     29  O1  SO3 d   5       8.693  13.195   8.280  0.00  0.00    -0.572 OA
ATOM     30  O3  SO3 d   5       9.136  12.265   6.143  0.00  0.00    -0.572 OA
ATOM     31  O2  SO3 d   5       6.916  12.998   6.678  0.00  0.00    -0.572 OA
ENDBRANCH  27  28
ENDBRANCH  26  27
ENDBRANCH   5  26
BRANCH   3  32
ATOM     32  O3  UYS d   2       5.504   6.792  10.890  0.00  0.00    -0.391 OA
ATOM     33  H3O UYS d   2       6.065   6.381  11.548  0.00  0.00     0.210 HD
ENDBRANCH   3  32
BRANCH   2  34
ATOM     34  N2  UYS d   2       3.221   8.686  10.852  0.00  0.00    -0.289 N 
ATOM     35  H2N UYS d   2       3.059   9.068  11.774  0.00  0.00     0.175 HD
BRANCH  34  36
ATOM     36  S1  UYS d   2       2.093   7.794  10.162  0.00  0.00     0.205 S 
ATOM     37  O1S UYS d   2       2.617   6.556   9.672  0.00  0.00    -0.578 OA
ATOM     38  O3S UYS d   2       1.149   7.528  11.258  0.00  0.00    -0.578 OA
ATOM     39  O2S UYS d   2       1.440   8.500   9.080  0.00  0.00    -0.578 OA
ENDBRANCH  34  36
ENDBRANCH   2  34
BRANCH   1  40
ATOM     40  O1  ROH d   1       5.189  11.044  11.535  0.00  0.00    -0.369 OA
ATOM     41  HO1 ROH d   1       4.586  10.609  12.143  0.00  0.00     0.212 HD
ENDBRANCH   1  40
TORSDOF 14
ENDMDL
MODEL 5
REMARK VINA RESULT:    -5.994     19.182     23.308
REMARK INTER + INTRA:         -13.022
REMARK INTER:                 -10.262
REMARK INTRA:                  -2.760
REMARK UNBOUND:                -2.824
REMARK  14 active torsions:
REMARK  status: ('A' for Active; 'I' for Inactive)
REMARK    1  A    between atoms: C1_3  and  O1_2 
REMARK    2  A    between atoms: C2_4  and  N2_5 
REMARK    3  A    between atoms: S1_7  and  N2_5 
REMARK    4  A    between atoms: O3_12  and  C3_11 
REMARK    5  A    between atoms: C4_14  and  O4_19 
REMARK    6  A    between atoms: C6_16  and  C5_15 
REMARK    7  A    between atoms: C6_16  and  O6_17 
REMARK    8  A    between atoms: S1_38  and  O6_17 
REMARK    9  A    between atoms: C1_20  and  O4_19 
REMARK   10  A    between atoms: C6_23  and  C5_22 
REMARK   11  A    between atoms: O4_27  and  C4_26 
REMARK   12  A    between atoms: O3_30  and  C3_29 
REMARK   13  A    between atoms: O2_33  and  C2_32 
REMARK   14  A    between atoms: O2_33  and  S1_34 
ROOT
ATOM      1  C1  UYS d   2      -7.780  17.308  -2.890  0.00  0.00     0.283 C 
ATOM      2  C2  UYS d   2      -6.404  16.898  -2.250  0.00  0.00     0.181 C 
ATOM      3  C3  UYS d   2      -5.394  17.938  -2.752  0.00  0.00     0.178 C 
ATOM      4  C4  UYS d   2      -5.293  17.723  -4.331  0.00  0.00     0.186 C 
ATOM      5  C5  UYS d   2      -6.586  18.034  -5.008  0.00  0.00     0.181 C 
ATOM      6  O5  UYS d   2      -7.699  17.190  -4.351  0.00  0.00    -0.349 OA
ENDROOT
BRANCH   4   7
ATOM      7  O4  UYS d   2      -4.298  18.645  -4.972  0.00  0.00    -0.348 OA
BRANCH   7   8
ATOM      8  C1  2UA d   3      -4.412  20.164  -4.560  0.00  0.00     0.294 C 
ATOM      9  C2  2UA d   3      -2.987  20.617  -4.305  0.00  0.00     0.231 C 
ATOM     10  C3  2UA d   3      -2.945  22.171  -4.129  0.00  0.00     0.185 C 
ATOM     11  C4  2UA d   3      -3.625  22.932  -5.295  0.00  0.00     0.189 C 
ATOM     12  C5  2UA d   3      -5.087  22.433  -5.539  0.00  0.00     0.256 C 
ATOM     13  O5  2UA d   3      -5.157  20.903  -5.612  0.00  0.00    -0.340 OA
BRANCH   9  14
ATOM     14  O2  2UA d   3      -2.453  19.939  -3.115  0.00  0.00    -0.244 OA
BRANCH  14  15
ATOM     15  S1  SO3 d   4      -1.081  19.176  -3.225  0.00  0.00     0.252 S 
ATOM     16  O3  SO3 d   4      -1.118  18.552  -4.528  0.00  0.00    -0.572 OA
ATOM     17  O1  SO3 d   4      -1.041  18.221  -2.124  0.00  0.00    -0.572 OA
ATOM     18  O2  SO3 d   4      -0.101  20.195  -3.144  0.00  0.00    -0.572 OA
ENDBRANCH  14  15
ENDBRANCH   9  14
BRANCH  10  19
ATOM     19  O3  2UA d   3      -1.571  22.678  -4.017  0.00  0.00    -0.390 OA
ATOM     20  H3O 2UA d   3      -1.608  23.588  -3.721  0.00  0.00     0.210 HD
ENDBRANCH  10  19
BRANCH  11  21
ATOM     21  O4  2UA d   3      -3.667  24.367  -5.214  0.00  0.00    -0.390 OA
ATOM     22  H4O 2UA d   3      -2.894  24.609  -5.725  0.00  0.00     0.210 HD
ENDBRANCH  11  21
BRANCH  12  23
ATOM     23  C6  2UA d   3      -6.031  23.087  -4.476  0.00  0.00     0.206 C 
ATOM     24  O6A 2UA d   3      -6.685  22.302  -3.755  0.00  0.00    -0.646 OA
ATOM     25  O6B 2UA d   3      -6.253  24.320  -4.403  0.00  0.00    -0.646 OA
ENDBRANCH  12  23
ENDBRANCH   7   8
ENDBRANCH   4   7
BRANCH   5  26
ATOM     26  C6  UYS d   2      -6.621  17.708  -6.504  0.00  0.00     0.227 C 
BRANCH  26  27
ATOM     27  O6  UYS d   2      -7.139  16.425  -6.661  0.00  0.00    -0.254 OA
BRANCH  27  28
ATOM     28  S1  SO3 d   5      -7.188  15.698  -7.984  0.00  0.00     0.251 S 
ATOM     29  O1  SO3 d   5      -7.342  16.678  -9.046  0.00  0.00    -0.572 OA
ATOM     30  O3  SO3 d   5      -5.942  14.988  -8.144  0.00  0.00    -0.572 OA
ATOM     31  O2  SO3 d   5      -8.314  14.860  -7.814  0.00  0.00    -0.572 OA
ENDBRANCH  27  28
ENDBRANCH  26  27
ENDBRANCH   5  26
BRANCH   3  32
ATOM     32  O3  UYS d   2      -4.069  17.812  -2.093  0.00  0.00    -0.391 OA
ATOM     33  H3O UYS d   2      -4.110  17.516  -1.184  0.00  0.00     0.210 HD
ENDBRANCH   3  32
BRANCH   2  34
ATOM     34  N2  UYS d   2      -6.531  16.843  -0.751  0.00  0.00    -0.289 N 
ATOM     35  H2N UYS d   2      -6.996  17.590  -0.253  0.00  0.00     0.175 HD
BRANCH  34  36
ATOM     36  S1  UYS d   2      -5.949  15.600   0.061  0.00  0.00     0.205 S 
ATOM     37  O1S UYS d   2      -6.820  14.467  -0.001  0.00  0.00    -0.578 OA
ATOM     38  O3S UYS d   2      -4.692  15.291  -0.639  0.00  0.00    -0.578 OA
ATOM     39  O2S UYS d   2      -5.696  15.936   1.447  0.00  0.00    -0.578 OA
ENDBRANCH  34  36
ENDBRANCH   2  34
BRANCH   1  40
ATOM     40  O1  ROH d   1      -8.260  18.667  -2.645  0.00  0.00    -0.369 OA
ATOM     41  HO1 ROH d   1      -7.696  19.227  -3.185  0.00  0.00     0.212 HD
ENDBRANCH   1  40
TORSDOF 14
ENDMDL
MODEL 6
REMARK VINA RESULT:    -5.944      3.618      7.535
REMARK INTER + INTRA:         -12.937
REMARK INTER:                 -10.372
REMARK INTRA:                  -2.566
REMARK UNBOUND:                -2.824
REMARK  14 active torsions:
REMARK  status: ('A' for Active; 'I' for Inactive)
REMARK    1  A    between atoms: C1_3  and  O1_2 
REMARK    2  A    between atoms: C2_4  and  N2_5 
REMARK    3  A    between atoms: S1_7  and  N2_5 
REMARK    4  A    between atoms: O3_12  and  C3_11 
REMARK    5  A    between atoms: C4_14  and  O4_19 
REMARK    6  A    between atoms: C6_16  and  C5_15 
REMARK    7  A    between atoms: C6_16  and  O6_17 
REMARK    8  A    between atoms: S1_38  and  O6_17 
REMARK    9  A    between atoms: C1_20  and  O4_19 
REMARK   10  A    between atoms: C6_23  and  C5_22 
REMARK   11  A    between atoms: O4_27  and  C4_26 
REMARK   12  A    between atoms: O3_30  and  C3_29 
REMARK   13  A    between atoms: O2_33  and  C2_32 
REMARK   14  A    between atoms: O2_33  and  S1_34 
ROOT
ATOM      1  C1  UYS d   2     -11.066   5.799   2.530  0.00  0.00     0.283 C 
ATOM      2  C2  UYS d   2     -10.386   4.628   3.329  0.00  0.00     0.181 C 
ATOM      3  C3  UYS d   2      -9.915   3.628   2.265  0.00  0.00     0.178 C 
ATOM      4  C4  UYS d   2     -11.241   3.060   1.581  0.00  0.00     0.186 C 
ATOM      5  C5  UYS d   2     -11.979   4.131   0.850  0.00  0.00     0.181 C 
ATOM      6  O5  UYS d   2     -12.252   5.294   1.827  0.00  0.00    -0.349 OA
ENDROOT
BRANCH   4   7
ATOM      7  O4  UYS d   2     -10.947   2.022   0.538  0.00  0.00    -0.348 OA
BRANCH   7   8
ATOM      8  C1  2UA d   3     -11.598   0.605   0.784  0.00  0.00     0.294 C 
ATOM      9  C2  2UA d   3     -11.455  -0.133  -0.534  0.00  0.00     0.231 C 
ATOM     10  C3  2UA d   3     -11.840  -1.638  -0.345  0.00  0.00     0.185 C 
ATOM     11  C4  2UA d   3     -11.076  -2.319   0.820  0.00  0.00     0.189 C 
ATOM     12  C5  2UA d   3     -11.234  -1.525   2.158  0.00  0.00     0.256 C 
ATOM     13  O5  2UA d   3     -10.958  -0.030   1.965  0.00  0.00    -0.340 OA
BRANCH   9  14
ATOM     14  O2  2UA d   3     -12.299   0.500  -1.556  0.00  0.00    -0.244 OA
BRANCH  14  15
ATOM     15  S1  SO3 d   4     -11.656   0.891  -2.938  0.00  0.00     0.252 S 
ATOM     16  O3  SO3 d   4     -12.784   1.194  -3.789  0.00  0.00    -0.572 OA
ATOM     17  O1  SO3 d   4     -10.884  -0.263  -3.384  0.00  0.00    -0.572 OA
ATOM     18  O2  SO3 d   4     -10.873   2.036  -2.653  0.00  0.00    -0.572 OA
ENDBRANCH  14  15
ENDBRANCH   9  14
BRANCH  10  19
ATOM     19  O3  2UA d   3     -11.587  -2.430  -1.556  0.00  0.00    -0.390 OA
ATOM     20  H3O 2UA d   3     -12.244  -3.125  -1.605  0.00  0.00     0.210 HD
ENDBRANCH  10  19
BRANCH  11  21
ATOM     21  O4  2UA d   3     -11.381  -3.696   1.097  0.00  0.00    -0.390 OA
ATOM     22  H4O 2UA d   3     -10.547  -4.120   0.890  0.00  0.00     0.210 HD
ENDBRANCH  11  21
BRANCH  12  23
ATOM     23  C6  2UA d   3     -12.627  -1.864   2.788  0.00  0.00     0.206 C 
ATOM     24  O6A 2UA d   3     -12.695  -2.922   3.451  0.00  0.00    -0.646 OA
ATOM     25  O6B 2UA d   3     -13.675  -1.213   2.557  0.00  0.00    -0.646 OA
ENDBRANCH  12  23
ENDBRANCH   7   8
ENDBRANCH   4   7
BRANCH   5  26
ATOM     26  C6  UYS d   2     -13.340   3.705   0.292  0.00  0.00     0.227 C 
BRANCH  26  27
ATOM     27  O6  UYS d   2     -13.264   3.708  -1.099  0.00  0.00    -0.254 OA
BRANCH  27  28
ATOM     28  S1  SO3 d   5     -13.447   4.945  -1.945  0.00  0.00     0.251 S 
ATOM     29  O1  SO3 d   5     -12.183   5.660  -2.002  0.00  0.00    -0.572 OA
ATOM     30  O3  SO3 d   5     -13.835   4.523  -3.269  0.00  0.00    -0.572 OA
ATOM     31  O2  SO3 d   5     -14.459   5.634  -1.237  0.00  0.00    -0.572 OA
ENDBRANCH  27  28
ENDBRANCH  26  27
ENDBRANCH   5  26
BRANCH   3  32
ATOM     32  O3  UYS d   2      -9.080   2.540   2.836  0.00  0.00    -0.391 OA
ATOM     33  H3O UYS d   2      -8.678   1.970   2.181  0.00  0.00     0.210 HD
ENDBRANCH   3  32
BRANCH   2  34
ATOM     34  N2  UYS d   2      -9.279   5.171   4.192  0.00  0.00    -0.289 N 
ATOM     35  H2N UYS d   2      -8.655   5.880   3.831  0.00  0.00     0.175 HD
BRANCH  34  36
ATOM     36  S1  UYS d   2      -9.092   4.646   5.686  0.00  0.00     0.205 S 
ATOM     37  O1S UYS d   2     -10.338   4.569   6.385  0.00  0.00    -0.578 OA
ATOM     38  O3S UYS d   2      -8.545   3.292   5.507  0.00  0.00    -0.578 OA
ATOM     39  O2S UYS d   2      -8.172   5.477   6.435  0.00  0.00    -0.578 OA
ENDBRANCH  34  36
ENDBRANCH   2  34
BRANCH   1  40
ATOM     40  O1  ROH d   1     -10.270   6.464   1.500  0.00  0.00    -0.369 OA
ATOM     41  HO1 ROH d   1      -9.487   5.916   1.403  0.00  0.00     0.212 HD
ENDBRANCH   1  40
TORSDOF 14
ENDMDL
MODEL 7
REMARK VINA RESULT:    -5.923     17.203     20.506
REMARK INTER + INTRA:         -12.901
REMARK INTER:                 -10.640
REMARK INTRA:                  -2.261
REMARK UNBOUND:                -2.824
REMARK  14 active torsions:
REMARK  status: ('A' for Active; 'I' for Inactive)
REMARK    1  A    between atoms: C1_3  and  O1_2 
REMARK    2  A    between atoms: C2_4  and  N2_5 
REMARK    3  A    between atoms: S1_7  and  N2_5 
REMARK    4  A    between atoms: O3_12  and  C3_11 
REMARK    5  A    between atoms: C4_14  and  O4_19 
REMARK    6  A    between atoms: C6_16  and  C5_15 
REMARK    7  A    between atoms: C6_16  and  O6_17 
REMARK    8  A    between atoms: S1_38  and  O6_17 
REMARK    9  A    between atoms: C1_20  and  O4_19 
REMARK   10  A    between atoms: C6_23  and  C5_22 
REMARK   11  A    between atoms: O4_27  and  C4_26 
REMARK   12  A    between atoms: O3_30  and  C3_29 
REMARK   13  A    between atoms: O2_33  and  C2_32 
REMARK   14  A    between atoms: O2_33  and  S1_34 
ROOT
ATOM      1  C1  UYS d   2      -5.917  18.695  -6.119  0.00  0.00     0.283 C 
ATOM      2  C2  UYS d   2      -6.571  17.361  -5.607  0.00  0.00     0.181 C 
ATOM      3  C3  UYS d   2      -7.106  17.681  -4.204  0.00  0.00     0.178 C 
ATOM      4  C4  UYS d   2      -5.821  17.983  -3.305  0.00  0.00     0.186 C 
ATOM      5  C5  UYS d   2      -5.107  19.207  -3.770  0.00  0.00     0.181 C 
ATOM      6  O5  UYS d   2      -4.772  19.043  -5.268  0.00  0.00    -0.349 OA
ENDROOT
BRANCH   4   7
ATOM      7  O4  UYS d   2      -6.177  18.271  -1.877  0.00  0.00    -0.348 OA
BRANCH   7   8
ATOM      8  C1  2UA d   3      -6.483  17.007  -0.982  0.00  0.00     0.294 C 
ATOM      9  C2  2UA d   3      -5.747  17.252   0.321  0.00  0.00     0.231 C 
ATOM     10  C3  2UA d   3      -6.174  16.186   1.384  0.00  0.00     0.185 C 
ATOM     11  C4  2UA d   3      -7.711  16.089   1.562  0.00  0.00     0.189 C 
ATOM     12  C5  2UA d   3      -8.439  15.848   0.199  0.00  0.00     0.256 C 
ATOM     13  O5  2UA d   3      -7.955  16.824  -0.880  0.00  0.00    -0.340 OA
BRANCH   9  14
ATOM     14  O2  2UA d   3      -4.297  17.212   0.091  0.00  0.00    -0.244 OA
BRANCH  14  15
ATOM     15  S1  SO3 d   4      -3.404  18.381   0.652  0.00  0.00     0.252 S 
ATOM     16  O3  SO3 d   4      -4.217  19.565   0.493  0.00  0.00    -0.572 OA
ATOM     17  O1  SO3 d   4      -2.185  18.400  -0.148  0.00  0.00    -0.572 OA
ATOM     18  O2  SO3 d   4      -3.198  18.047   2.013  0.00  0.00    -0.572 OA
ENDBRANCH  14  15
ENDBRANCH   9  14
BRANCH  10  19
ATOM     19  O3  2UA d   3      -5.596  16.460   2.705  0.00  0.00    -0.390 OA
ATOM     20  H3O 2UA d   3      -6.087  15.960   3.359  0.00  0.00     0.210 HD
ENDBRANCH  10  19
BRANCH  11  21
ATOM     21  O4  2UA d   3      -8.209  15.114   2.495  0.00  0.00    -0.390 OA
ATOM     22  H4O 2UA d   3      -8.884  14.679   1.971  0.00  0.00     0.210 HD
ENDBRANCH  11  21
BRANCH  12  23
ATOM     23  C6  2UA d   3      -8.322  14.334  -0.179  0.00  0.00     0.206 C 
ATOM     24  O6A 2UA d   3      -9.273  13.848  -0.831  0.00  0.00    -0.646 OA
ATOM     25  O6B 2UA d   3      -7.412  13.577   0.239  0.00  0.00    -0.646 OA
ENDBRANCH  12  23
ENDBRANCH   7   8
ENDBRANCH   4   7
BRANCH   5  26
ATOM     26  C6  UYS d   2      -3.779  19.484  -3.058  0.00  0.00     0.227 C 
BRANCH  26  27
ATOM     27  O6  UYS d   2      -2.827  18.588  -3.542  0.00  0.00    -0.254 OA
BRANCH  27  28
ATOM     28  S1  SO3 d   5      -1.455  19.001  -4.019  0.00  0.00     0.251 S 
ATOM     29  O1  SO3 d   5      -0.476  18.590  -3.026  0.00  0.00    -0.572 OA
ATOM     30  O3  SO3 d   5      -1.201  18.328  -5.270  0.00  0.00    -0.572 OA
ATOM     31  O2  SO3 d   5      -1.597  20.402  -4.133  0.00  0.00    -0.572 OA
ENDBRANCH  27  28
ENDBRANCH  26  27
ENDBRANCH   5  26
BRANCH   3  32
ATOM     32  O3  UYS d   2      -7.925  16.578  -3.641  0.00  0.00    -0.391 OA
ATOM     33  H3O UYS d   2      -7.870  15.758  -4.131  0.00  0.00     0.210 HD
ENDBRANCH   3  32
BRANCH   2  34
ATOM     34  N2  UYS d   2      -7.630  16.903  -6.574  0.00  0.00    -0.289 N 
ATOM     35  H2N UYS d   2      -8.589  17.202  -6.457  0.00  0.00     0.175 HD
BRANCH  34  36
ATOM     36  S1  UYS d   2      -7.245  15.960  -7.801  0.00  0.00     0.205 S 
ATOM     37  O1S UYS d   2      -5.991  15.302  -7.596  0.00  0.00    -0.578 OA
ATOM     38  O3S UYS d   2      -8.326  14.962  -7.818  0.00  0.00    -0.578 OA
ATOM     39  O2S UYS d   2      -7.203  16.694  -9.049  0.00  0.00    -0.578 OA
ENDBRANCH  34  36
ENDBRANCH   2  34
BRANCH   1  40
ATOM     40  O1  ROH d   1      -6.754  19.894  -6.136  0.00  0.00    -0.369 OA
ATOM     41  HO1 ROH d   1      -6.149  20.618  -5.954  0.00  0.00     0.212 HD
ENDBRANCH   1  40
TORSDOF 14
ENDMDL
MODEL 8
REMARK VINA RESULT:    -5.862     20.124     22.589
REMARK INTER + INTRA:         -12.799
REMARK INTER:                  -9.846
REMARK INTRA:                  -2.952
REMARK UNBOUND:                -2.824
REMARK  14 active torsions:
REMARK  status: ('A' for Active; 'I' for Inactive)
REMARK    1  A    between atoms: C1_3  and  O1_2 
REMARK    2  A    between atoms: C2_4  and  N2_5 
REMARK    3  A    between atoms: S1_7  and  N2_5 
REMARK    4  A    between atoms: O3_12  and  C3_11 
REMARK    5  A    between atoms: C4_14  and  O4_19 
REMARK    6  A    between atoms: C6_16  and  C5_15 
REMARK    7  A    between atoms: C6_16  and  O6_17 
REMARK    8  A    between atoms: S1_38  and  O6_17 
REMARK    9  A    between atoms: C1_20  and  O4_19 
REMARK   10  A    between atoms: C6_23  and  C5_22 
REMARK   11  A    between atoms: O4_27  and  C4_26 
REMARK   12  A    between atoms: O3_30  and  C3_29 
REMARK   13  A    between atoms: O2_33  and  C2_32 
REMARK   14  A    between atoms: O2_33  and  S1_34 
ROOT
ATOM      1  C1  UYS d   2      -5.620   2.591 -17.502  0.00  0.00     0.283 C 
ATOM      2  C2  UYS d   2      -6.966   1.965 -18.020  0.00  0.00     0.181 C 
ATOM      3  C3  UYS d   2      -6.629   0.511 -18.374  0.00  0.00     0.178 C 
ATOM      4  C4  UYS d   2      -5.611   0.584 -19.602  0.00  0.00     0.186 C 
ATOM      5  C5  UYS d   2      -4.324   1.226 -19.203  0.00  0.00     0.181 C 
ATOM      6  O5  UYS d   2      -4.633   2.608 -18.589  0.00  0.00    -0.349 OA
ENDROOT
BRANCH   4   7
ATOM      7  O4  UYS d   2      -5.218  -0.774 -20.102  0.00  0.00    -0.348 OA
BRANCH   7   8
ATOM      8  C1  2UA d   3      -4.854  -1.832 -18.988  0.00  0.00     0.294 C 
ATOM      9  C2  2UA d   3      -5.545  -3.114 -19.414  0.00  0.00     0.231 C 
ATOM     10  C3  2UA d   3      -5.057  -4.303 -18.522  0.00  0.00     0.185 C 
ATOM     11  C4  2UA d   3      -3.514  -4.433 -18.472  0.00  0.00     0.189 C 
ATOM     12  C5  2UA d   3      -2.833  -3.091 -18.043  0.00  0.00     0.256 C 
ATOM     13  O5  2UA d   3      -3.376  -1.901 -18.842  0.00  0.00    -0.340 OA
BRANCH   9  14
ATOM     14  O2  2UA d   3      -7.002  -2.950 -19.321  0.00  0.00    -0.244 OA
BRANCH  14  15
ATOM     15  S1  SO3 d   4      -7.901  -3.452 -20.511  0.00  0.00     0.252 S 
ATOM     16  O3  SO3 d   4      -9.039  -2.560 -20.506  0.00  0.00    -0.572 OA
ATOM     17  O1  SO3 d   4      -8.248  -4.839 -20.220  0.00  0.00    -0.572 OA
ATOM     18  O2  SO3 d   4      -7.092  -3.287 -21.661  0.00  0.00    -0.572 OA
ENDBRANCH  14  15
ENDBRANCH   9  14
BRANCH  10  19
ATOM     19  O3  2UA d   3      -5.590  -5.593 -18.980  0.00  0.00    -0.390 OA
ATOM     20  H3O 2UA d   3      -4.884  -6.239 -18.949  0.00  0.00     0.210 HD
ENDBRANCH  10  19
BRANCH  11  21
ATOM     21  O4  2UA d   3      -2.962  -5.477 -17.653  0.00  0.00    -0.390 OA
ATOM     22  H4O 2UA d   3      -2.360  -5.901 -18.266  0.00  0.00     0.210 HD
ENDBRANCH  11  21
BRANCH  12  23
ATOM     23  C6  2UA d   3      -2.935  -2.945 -16.488  0.00  0.00     0.206 C 
ATOM     24  O6A 2UA d   3      -2.120  -2.165 -15.947  0.00  0.00    -0.646 OA
ATOM     25  O6B 2UA d   3      -3.685  -3.649 -15.767  0.00  0.00    -0.646 OA
ENDBRANCH  12  23
ENDBRANCH   7   8
ENDBRANCH   4   7
BRANCH   5  26
ATOM     26  C6  UYS d   2      -3.347   1.474 -20.357  0.00  0.00     0.227 C 
BRANCH  26  27
ATOM     27  O6  UYS d   2      -2.187   0.742 -20.114  0.00  0.00    -0.254 OA
BRANCH  27  28
ATOM     28  S1  SO3 d   5      -1.014   1.272 -19.323  0.00  0.00     0.251 S 
ATOM     29  O1  SO3 d   5       0.196   1.084 -20.106  0.00  0.00    -0.572 OA
ATOM     30  O3  SO3 d   5      -1.238   2.678 -19.090  0.00  0.00    -0.572 OA
ATOM     31  O2  SO3 d   5      -1.066   0.476 -18.157  0.00  0.00    -0.572 OA
ENDBRANCH  27  28
ENDBRANCH  26  27
ENDBRANCH   5  26
BRANCH   3  32
ATOM     32  O3  UYS d   2      -7.836  -0.289 -18.708  0.00  0.00    -0.391 OA
ATOM     33  H3O UYS d   2      -7.719  -0.885 -19.447  0.00  0.00     0.210 HD
ENDBRANCH   3  32
BRANCH   2  34
ATOM     34  N2  UYS d   2      -8.035   2.106 -16.970  0.00  0.00    -0.289 N 
ATOM     35  H2N UYS d   2      -7.839   1.863 -16.008  0.00  0.00     0.175 HD
BRANCH  34  36
ATOM     36  S1  UYS d   2      -9.480   2.658 -17.361  0.00  0.00     0.205 S 
ATOM     37  O1S UYS d   2      -9.422   3.570 -18.461  0.00  0.00    -0.578 OA
ATOM     38  O3S UYS d   2     -10.210   1.447 -17.765  0.00  0.00    -0.578 OA
ATOM     39  O2S UYS d   2     -10.130   3.300 -16.238  0.00  0.00    -0.578 OA
ENDBRANCH  34  36
ENDBRANCH   2  34
BRANCH   1  40
ATOM     40  O1  ROH d   1      -4.947   1.921 -16.390  0.00  0.00    -0.369 OA
ATOM     41  HO1 ROH d   1      -5.207   0.999 -16.467  0.00  0.00     0.212 HD
ENDBRANCH   1  40
TORSDOF 14
ENDMDL
MODEL 9
REMARK VINA RESULT:    -5.788     19.731     22.714
REMARK INTER + INTRA:         -12.672
REMARK INTER:                  -9.849
REMARK INTRA:                  -2.824
REMARK UNBOUND:                -2.824
REMARK  14 active torsions:
REMARK  status: ('A' for Active; 'I' for Inactive)
REMARK    1  A    between atoms: C1_3  and  O1_2 
REMARK    2  A    between atoms: C2_4  and  N2_5 
REMARK    3  A    between atoms: S1_7  and  N2_5 
REMARK    4  A    between atoms: O3_12  and  C3_11 
REMARK    5  A    between atoms: C4_14  and  O4_19 
REMARK    6  A    between atoms: C6_16  and  C5_15 
REMARK    7  A    between atoms: C6_16  and  O6_17 
REMARK    8  A    between atoms: S1_38  and  O6_17 
REMARK    9  A    between atoms: C1_20  and  O4_19 
REMARK   10  A    between atoms: C6_23  and  C5_22 
REMARK   11  A    between atoms: O4_27  and  C4_26 
REMARK   12  A    between atoms: O3_30  and  C3_29 
REMARK   13  A    between atoms: O2_33  and  C2_32 
REMARK   14  A    between atoms: O2_33  and  S1_34 
ROOT
ATOM      1  C1  UYS d   2       4.658   5.950  11.334  0.00  0.00     0.283 C 
ATOM      2  C2  UYS d   2       6.155   6.125  10.889  0.00  0.00     0.181 C 
ATOM      3  C3  UYS d   2       6.621   7.438  11.532  0.00  0.00     0.178 C 
ATOM      4  C4  UYS d   2       5.759   8.592  10.844  0.00  0.00     0.186 C 
ATOM      5  C5  UYS d   2       4.310   8.458  11.170  0.00  0.00     0.181 C 
ATOM      6  O5  UYS d   2       3.847   7.039  10.776  0.00  0.00    -0.349 OA
ENDROOT
BRANCH   4   7
ATOM      7  O4  UYS d   2       6.134   9.958  11.338  0.00  0.00    -0.348 OA
BRANCH   7   8
ATOM      8  C1  2UA d   3       6.625  10.972  10.232  0.00  0.00     0.294 C 
ATOM      9  C2  2UA d   3       8.140  10.929  10.296  0.00  0.00     0.231 C 
ATOM     10  C3  2UA d   3       8.747  11.706   9.080  0.00  0.00     0.185 C 
ATOM     11  C4  2UA d   3       8.183  11.234   7.716  0.00  0.00     0.189 C 
ATOM     12  C5  2UA d   3       6.619  11.279   7.689  0.00  0.00     0.256 C 
ATOM     13  O5  2UA d   3       6.013  10.608   8.927  0.00  0.00    -0.340 OA
BRANCH   9  14
ATOM     14  O2  2UA d   3       8.603  11.501  11.568  0.00  0.00    -0.244 OA
BRANCH  14  15
ATOM     15  S1  SO3 d   4       9.603  10.672  12.456  0.00  0.00     0.252 S 
ATOM     16  O3  SO3 d   4       8.755   9.924  13.354  0.00  0.00    -0.572 OA
ATOM     17  O1  SO3 d   4      10.462  11.636  13.133  0.00  0.00    -0.572 OA
ATOM     18  O2  SO3 d   4      10.284   9.836  11.537  0.00  0.00    -0.572 OA
ENDBRANCH  14  15
ENDBRANCH   9  14
BRANCH  10  19
ATOM     19  O3  2UA d   3      10.209  11.578   9.017  0.00  0.00    -0.390 OA
ATOM     20  H3O 2UA d   3      10.422  10.691   8.726  0.00  0.00     0.210 HD
ENDBRANCH  10  19
BRANCH  11  21
ATOM     21  O4  2UA d   3       8.653  11.907   6.536  0.00  0.00    -0.390 OA
ATOM     22  H4O 2UA d   3       7.886  12.430   6.297  0.00  0.00     0.210 HD
ENDBRANCH  11  21
BRANCH  12  23
ATOM     23  C6  2UA d   3       6.158  12.754   7.443  0.00  0.00     0.206 C 
ATOM     24  O6A 2UA d   3       6.150  13.144   6.254  0.00  0.00    -0.646 OA
ATOM     25  O6B 2UA d   3       5.928  13.577   8.362  0.00  0.00    -0.646 OA
ENDBRANCH  12  23
ENDBRANCH   7   8
ENDBRANCH   4   7
BRANCH   5  26
ATOM     26  C6  UYS d   2       3.392   9.435  10.427  0.00  0.00     0.227 C 
BRANCH  26  27
ATOM     27  O6  UYS d   2       2.246   9.629  11.195  0.00  0.00    -0.254 OA
BRANCH  27  28
ATOM     28  S1  SO3 d   5       0.876   9.137  10.792  0.00  0.00     0.251 S 
ATOM     29  O1  SO3 d   5       0.549   7.968  11.591  0.00  0.00    -0.572 OA
ATOM     30  O3  SO3 d   5      -0.069  10.195  11.058  0.00  0.00    -0.572 OA
ATOM     31  O2  SO3 d   5       1.060   8.856   9.420  0.00  0.00    -0.572 OA
ENDBRANCH  27  28
ENDBRANCH  26  27
ENDBRANCH   5  26
BRANCH   3  32
ATOM     32  O3  UYS d   2       8.079   7.667  11.369  0.00  0.00    -0.391 OA
ATOM     33  H3O UYS d   2       8.551   7.795  12.192  0.00  0.00     0.210 HD
ENDBRANCH   3  32
BRANCH   2  34
ATOM     34  N2  UYS d   2       6.958   4.922  11.305  0.00  0.00    -0.289 N 
ATOM     35  H2N UYS d   2       6.852   4.535  12.234  0.00  0.00     0.175 HD
BRANCH  34  36
ATOM     36  S1  UYS d   2       7.970   4.236  10.281  0.00  0.00     0.205 S 
ATOM     37  O1S UYS d   2       8.193   2.857  10.592  0.00  0.00    -0.578 OA
ATOM     38  O3S UYS d   2       7.273   4.341   8.989  0.00  0.00    -0.578 OA
ATOM     39  O2S UYS d   2       9.241   4.929  10.237  0.00  0.00    -0.578 OA
ENDBRANCH  34  36
ENDBRANCH   2  34
BRANCH   1  40
ATOM     40  O1  ROH d   1       4.374   5.962  12.768  0.00  0.00    -0.369 OA
ATOM     41  HO1 ROH d   1       3.416   6.005  12.827  0.00  0.00     0.212 HD
ENDBRANCH   1  40
TORSDOF 14
ENDMDL
