REMARK  14 active torsions:
REMARK  status: ('A' for Active; 'I' for Inactive)
REMARK    1  A    between atoms: C1_3  and  O1_2 
REMARK    2  A    between atoms: C2_4  and  N2_5 
REMARK    3  A    between atoms: S1_7  and  N2_5 
REMARK    4  A    between atoms: O3_12  and  C3_11 
REMARK    5  A    between atoms: C4_14  and  O4_19 
REMARK    6  A    between atoms: C6_16  and  C5_15 
REMARK    7  A    between atoms: C6_16  and  O6_17 
REMARK    8  A    between atoms: S1_38  and  O6_17 
REMARK    9  A    between atoms: C1_20  and  O4_19 
REMARK   10  A    between atoms: C6_23  and  C5_22 
REMARK   11  A    between atoms: O4_27  and  C4_26 
REMARK   12  A    between atoms: O3_30  and  C3_29 
REMARK   13  A    between atoms: O2_33  and  C2_32 
REMARK   14  A    between atoms: O2_33  and  S1_34 
ROOT
ATOM      1  C1  UYS d   2      61.413  52.674  33.351  0.00  0.00     0.283 C 
ATOM      2  C2  UYS d   2      60.714  51.324  32.951  0.00  0.00     0.181 C 
ATOM      3  C3  UYS d   2      61.514  50.224  33.661  0.00  0.00     0.178 C 
ATOM      4  C4  UYS d   2      62.968  50.246  33.002  0.00  0.00     0.186 C 
ATOM      5  C5  UYS d   2      63.676  51.528  33.287  0.00  0.00     0.181 C 
ATOM      6  O5  UYS d   2      62.782  52.697  32.821  0.00  0.00    -0.349 OA
ENDROOT
BRANCH   4   7
ATOM      7  O4  UYS d   2      63.867  49.184  33.563  0.00  0.00    -0.348 OA
BRANCH   7   8
ATOM      8  C1  2UA d   3      63.781  47.775  32.857  0.00  0.00     0.294 C 
ATOM      9  C2  2UA d   3      65.218  47.308  32.721  0.00  0.00     0.231 C 
ATOM     10  C3  2UA d   3      65.251  45.813  32.260  0.00  0.00     0.185 C 
ATOM     11  C4  2UA d   3      64.392  44.883  33.154  0.00  0.00     0.189 C 
ATOM     12  C5  2UA d   3      62.921  45.400  33.283  0.00  0.00     0.256 C 
ATOM     13  O5  2UA d   3      62.875  46.891  33.636  0.00  0.00    -0.340 OA
BRANCH   9  14
ATOM     14  O2  2UA d   3      65.934  48.167  31.768  0.00  0.00    -0.244 OA
BRANCH  14  15
ATOM     15  S1  SO3 d   4      67.434  48.543  32.061  0.00  0.00     0.252 S 
ATOM     16  O3  SO3 d   4      67.756  49.545  31.071  0.00  0.00    -0.572 OA
ATOM     17  O1  SO3 d   4      68.210  47.316  31.921  0.00  0.00    -0.572 OA
ATOM     18  O2  SO3 d   4      67.417  49.070  33.375  0.00  0.00    -0.572 OA
ENDBRANCH  14  15
ENDBRANCH   9  14
BRANCH  10  19
ATOM     19  O3  2UA d   3      66.615  45.269  32.246  0.00  0.00    -0.390 OA
ATOM     20  H3O 2UA d   3      67.199  45.929  31.871  0.00  0.00     0.210 HD
ENDBRANCH  10  19
BRANCH  11  21
ATOM     21  O4  2UA d   3      64.330  43.492  32.796  0.00  0.00    -0.390 OA
ATOM     22  H4O 2UA d   3      65.250  43.235  32.874  0.00  0.00     0.210 HD
ENDBRANCH  11  21
BRANCH  12  23
ATOM     23  C6  2UA d   3      62.128  45.001  31.994  0.00  0.00     0.206 C 
ATOM     24  O6A 2UA d   3      62.365  45.672  30.965  0.00  0.00    -0.646 OA
ATOM     25  O6B 2UA d   3      61.202  44.154  31.977  0.00  0.00    -0.646 OA
ENDBRANCH  12  23
ENDBRANCH   7   8
ENDBRANCH   4   7
BRANCH   5  26
ATOM     26  C6  UYS d   2      65.017  51.694  32.565  0.00  0.00     0.227 C 
BRANCH  26  27
ATOM     27  O6  UYS d   2      65.865  52.439  33.382  0.00  0.00    -0.254 OA
BRANCH  27  28
ATOM     28  S1  SO3 d   5      66.359  53.823  33.034  0.00  0.00     0.251 S 
ATOM     29  O1  SO3 d   5      66.944  53.786  31.704  0.00  0.00    -0.572 OA
ATOM     30  O3  SO3 d   5      65.224  54.714  33.049  0.00  0.00    -0.572 OA
ATOM     31  O2  SO3 d   5      67.298  54.064  34.062  0.00  0.00    -0.572 OA
ENDBRANCH  27  28
ENDBRANCH  26  27
ENDBRANCH   5  26
BRANCH   3  32
ATOM     32  O3  UYS d   2      60.876  48.888  33.543  0.00  0.00    -0.391 OA
ATOM     33  H3O UYS d   2      61.457  48.156  33.749  0.00  0.00     0.210 HD
ENDBRANCH   3  32
BRANCH   2  34
ATOM     34  N2  UYS d   2      59.259  51.366  33.334  0.00  0.00    -0.289 N 
ATOM     35  H2N UYS d   2      58.957  50.995  34.225  0.00  0.00     0.175 HD
BRANCH  34  36
ATOM     36  S1  UYS d   2      58.185  52.011  32.347  0.00  0.00     0.205 S 
ATOM     37  O1S UYS d   2      58.805  52.781  31.313  0.00  0.00    -0.578 OA
ATOM     38  O3S UYS d   2      57.518  50.841  31.755  0.00  0.00    -0.578 OA
ATOM     39  O2S UYS d   2      57.234  52.840  33.058  0.00  0.00    -0.578 OA
ENDBRANCH  34  36
ENDBRANCH   2  34
BRANCH   1  40
ATOM     40  O1  ROH d   1      61.554  52.964  34.777  0.00  0.00    -0.369 OA
ATOM     41  HO1 ROH d   1      62.130  53.732  34.815  0.00  0.00     0.212 HD
ENDBRANCH   1  40
TORSDOF 14
